data_image0
_chemical_formula_structural       W645Se178S1250
_chemical_formula_sum              "W645 Se178 S1250"
_cell_length_a       54.067588270818526
_cell_length_b       54.120699850652336
_cell_length_c       23.24463193352398
_cell_angle_alpha    90.0
_cell_angle_beta     90.0
_cell_angle_gamma    90.0

_space_group_name_H-M_alt    "P 1"
_space_group_IT_number       1

loop_
  _space_group_symop_operation_xyz
  'x, y, z'

loop_
  _atom_site_type_symbol
  _atom_site_label
  _atom_site_symmetry_multiplicity
  _atom_site_fract_x
  _atom_site_fract_y
  _atom_site_fract_z
  _atom_site_occupancy
  W   W1        1.0  0.36149312377210213  0.0009813542688910698  0.18279172579957653  1.0000
  W   W2        1.0  0.2581230164727218  0.007095946251981581  0.18279172579957653  1.0000
  W   W3        1.0  0.6296660117878193  0.006869479882237488  0.18279172579957653  1.0000
  W   W4        1.0  0.8891944990176818  0.008635917566241415  0.18279172579957653  1.0000
  W   W5        1.0  0.5235101506221349  0.01792607131174354  0.18279172579957653  1.0000
  W   W6        1.0  0.15512086785683782  0.022357810299953068  0.18279172579957653  1.0000
  W   W7        1.0  0.7826397570994821  0.02176822196449282  0.18279172579957653  1.0000
  W   W8        1.0  0.42141453831041253  0.025515210991167814  0.18279172579957653  1.0000
  W   W9        1.0  0.053134488301482416  0.030868052457846375  0.18279172579957653  1.0000
  W   W10       1.0  0.6815651604453177  0.03156689564932941  0.18279172579957653  1.0000
  W   W11       1.0  0.3164702030124427  0.03516519463526333  0.18279172579957653  1.0000
  W   W12       1.0  0.9446485008968993  0.03532875368007851  0.18279172579957653  1.0000
  W   W13       1.0  0.5785854616895875  0.03969032820848327  0.18279172579957653  1.0000
  W   W14       1.0  0.21044279885144324  0.04325507662112177  0.18279172579957653  1.0000
  W   W15       1.0  0.8387360838244925  0.045305855413804386  0.18279172579957653  1.0000
  W   W16       1.0  0.47523523937545237  0.05020401838747999  0.18279172579957653  1.0000
  W   W17       1.0  0.10600851342501637  0.057818122342165525  0.18279172579957653  1.0000
  W   W18       1.0  0.7358967162503508  0.057666246086265714  0.18279172579957653  1.0000
  W   W19       1.0  0.3695481335952848  0.060745829244357216  0.18279172579957653  1.0000
  W   W20       1.0  0.9976424361493124  0.06123650637880275  0.18279172579957653  1.0000
  W   W21       1.0  0.6332678454485919  0.06645170335062386  0.18279172579957653  1.0000
  W   W22       1.0  0.0019646365422396855  0.06712463199214917  0.18279172579957653  1.0000
  W   W23       1.0  0.2658153241650295  0.06889106967615309  0.18279172579957653  1.0000
  W   W24       1.0  0.8946954813359528  0.06790971540726203  0.18279172579957653  1.0000
  W   W25       1.0  0.5287678922256526  0.07617178372821161  0.18279172579957653  1.0000
  W   W26       1.0  0.7914068506022037  0.07654563297350343  0.18279172579957653  1.0000
  W   W27       1.0  0.16288622968387212  0.07868676956017487  0.18279172579957653  1.0000
  W   W28       1.0  0.058939096267190565  0.08930323846908735  0.18279172579957653  1.0000
  W   W29       1.0  0.4232058245695135  0.08809097731339838  0.18279172579957653  1.0000
  W   W30       1.0  0.6879644657042795  0.09028459273797841  0.18279172579957653  1.0000
  W   W31       1.0  0.9484828640034927  0.09322865554465162  0.18279172579957653  1.0000
  W   W32       1.0  0.3203994760969221  0.09600915930650966  0.18279172579957653  1.0000
  W   W33       1.0  0.5829240340537  0.10148838730781815  0.18279172579957653  1.0000
  W   W34       1.0  0.8453394455359091  0.10380547377603314  0.18279172579957653  1.0000
  W   W35       1.0  0.21709233791748528  0.10500490677134447  0.18279172579957653  1.0000
  W   W36       1.0  0.48124665118771215  0.11044696226246767  0.18279172579957653  1.0000
  W   W37       1.0  0.7413228552717747  0.11171082760876677  0.18279172579957653  1.0000
  W   W38       1.0  0.11296660117878192  0.11481844946025517  0.18279172579957653  1.0000
  W   W39       1.0  0.37622789783889976  0.12168792934249265  0.18279172579957653  1.0000
  W   W40       1.0  0.6404715127701376  0.12595468703332338  0.18279172579957653  1.0000
  W   W41       1.0  0.2731780334923753  0.12991261273891305  0.18279172579957653  1.0000
  W   W42       1.0  0.9003929273084479  0.1297350343473994  0.18279172579957653  1.0000
  W   W43       1.0  0.5338453295231291  0.13355339459363014  0.18279172579957653  1.0000
  W   W44       1.0  0.16875193878606143  0.1404886111254584  0.18279172579957653  1.0000
  W   W45       1.0  0.7976424361493124  0.14165635533558052  0.18279172579957653  1.0000
  W   W46       1.0  0.42829076620825146  0.14327772325809618  0.18279172579957653  1.0000
  W   W47       1.0  0.06475442043222004  0.15034347399411185  0.18279172579957653  1.0000
  W   W48       1.0  0.6959179218511242  0.1501472031403337  0.18279172579957653  1.0000
  W   W49       1.0  0.3280943025540275  0.15505397448478903  0.18279172579957653  1.0000
  W   W50       1.0  0.9546496398166339  0.15521753352960418  0.18279172579957653  1.0000
  W   W51       1.0  0.591562403060697  0.15980579515520893  0.18279172579957653  1.0000
  W   W52       1.0  0.22207949221701676  0.1654714274930173  0.18279172579957653  1.0000
  W   W53       1.0  0.8508662261118056  0.16665179766259255  0.18279172579957653  1.0000
  W   W54       1.0  0.48698428290766205  0.17010140660778544  0.18279172579957653  1.0000
  W   W55       1.0  0.12173190267492821  0.17724767871971014  0.18279172579957653  1.0000
  W   W56       1.0  0.7485265225933203  0.17664376840039256  0.18279172579957653  1.0000
  W   W57       1.0  0.38289732189018716  0.17974278188110118  0.18279172579957653  1.0000
  W   W58       1.0  0.6458296124307912  0.18458381657596576  0.18279172579957653  1.0000
  W   W59       1.0  0.017583497053045186  0.18783120706575077  0.18279172579957653  1.0000
  W   W60       1.0  0.2783804561373537  0.18799334385800232  0.18279172579957653  1.0000
  W   W61       1.0  0.9055188426504733  0.19020430011597825  0.18279172579957653  1.0000
  W   W62       1.0  0.5422396856581533  0.19332679097154074  0.18279172579957653  1.0000
  W   W63       1.0  0.17305173542894564  0.20003271180896307  0.18279172579957653  1.0000
  W   W64       1.0  0.801735428945645  0.20003271180896307  0.18279172579957653  1.0000
  W   W65       1.0  0.4382776686313032  0.20395812888452733  0.18279172579957653  1.0000
  W   W66       1.0  0.6954813359528487  0.21295387634936214  0.18279172579957653  1.0000
  W   W67       1.0  0.06974459724950884  0.2149165848871443  0.18279172579957653  1.0000
  W   W68       1.0  0.33555992141453833  0.21574092247301277  0.18279172579957653  1.0000
  W   W69       1.0  0.9607072691552063  0.2149165848871443  0.18279172579957653  1.0000
  W   W70       1.0  0.5974132285527177  0.2216225057245666  0.18279172579957653  1.0000
  W   W71       1.0  0.23020415136243275  0.22571148184494605  0.18279172579957653  1.0000
  W   W72       1.0  0.8583393651121911  0.2248850782500904  0.18279172579957653  1.0000
  W   W73       1.0  0.49214145383104124  0.23116345000545196  0.18279172579957653  1.0000
  W   W74       1.0  0.7550098231827113  0.23375858684985282  0.18279172579957653  1.0000
  W   W75       1.0  0.12786509495743287  0.2373241740268237  0.18279172579957653  1.0000
  W   W76       1.0  0.388819432041436  0.24123472209831384  0.18279172579957653  1.0000
  W   W77       1.0  0.02528401810882378  0.24491189145368436  0.18279172579957653  1.0000
  W   W78       1.0  0.6503839971423468  0.2448032830760996  0.18279172579957653  1.0000
  W   W79       1.0  0.28487229862475444  0.25047899434553017  0.18279172579957653  1.0000
  W   W80       1.0  0.9117699589212359  0.2514051208850031  0.18279172579957653  1.0000
  W   W81       1.0  0.5458882963794555  0.2558063460909389  0.18279172579957653  1.0000
  W   W82       1.0  0.8104125736738704  0.26005888125613347  0.18279172579957653  1.0000
  W   W83       1.0  0.18118314778432656  0.26202158979391565  0.18279172579957653  1.0000
  W   W84       1.0  0.44220694171578256  0.2667648020935558  0.18279172579957653  1.0000
  W   W85       1.0  0.7074477585283087  0.27103220626282454  0.18279172579957653  1.0000
  W   W86       1.0  0.08007858546168957  0.272423945044161  0.18279172579957653  1.0000
  W   W87       1.0  0.33971840209561227  0.27494275433431475  0.18279172579957653  1.0000
  W   W88       1.0  0.9675834970530452  0.27630574637444116  0.18279172579957653  1.0000
  W   W89       1.0  0.603589926772638  0.28022125078062277  0.18279172579957653  1.0000
  W   W90       1.0  0.23627339468514114  0.2858323433706937  0.18279172579957653  1.0000
  W   W91       1.0  0.8644400785854617  0.2881768144387081  0.18279172579957653  1.0000
  W   W92       1.0  0.49705304518664045  0.2904808635917566  0.18279172579957653  1.0000
  W   W93       1.0  0.1337917485265226  0.2969578017664377  0.18279172579957653  1.0000
  W   W94       1.0  0.7601075380002068  0.29750529414802956  0.18279172579957653  1.0000
  W   W95       1.0  0.39463568804988475  0.3006357468959338  0.18279172579957653  1.0000
  W   W96       1.0  0.6591355599214146  0.30323846908734053  0.18279172579957653  1.0000
  W   W97       1.0  0.027598465712414633  0.3058086826487219  0.18279172579957653  1.0000
  W   W98       1.0  0.28863785199738046  0.31027150801439324  0.18279172579957653  1.0000
  W   W99       1.0  0.91732154551408  0.3122342165521754  0.18279172579957653  1.0000
  W   W100      1.0  0.5560740013097577  0.3146058227019954  0.18279172579957653  1.0000
  W   W101      1.0  0.18271119842829078  0.32384690873405303  0.18279172579957653  1.0000
  W   W102      1.0  0.4516208251473477  0.32441936539090616  0.18279172579957653  1.0000
  W   W103      1.0  0.8131809251652081  0.32259791239182806  0.18279172579957653  1.0000
  W   W104      1.0  0.08266026340682531  0.33249736488205583  0.18279172579957653  1.0000
  W   W105      1.0  0.7133698686795575  0.3305614379422551  0.18279172579957653  1.0000
  W   W106      1.0  0.3475620646544026  0.3374074404496387  0.18279172579957653  1.0000
  W   W107      1.0  0.9739239149848187  0.3376750825229726  0.18279172579957653  1.0000
  W   W108      1.0  0.6118291800227484  0.3397551779350241  0.18279172579957653  1.0000
  W   W109      1.0  0.24045747965197867  0.34669844385251647  0.18279172579957653  1.0000
  W   W110      1.0  0.8673292499711084  0.34612942331005025  0.18279172579957653  1.0000
  W   W111      1.0  0.5066976245758171  0.3511464002141137  0.18279172579957653  1.0000
  W   W112      1.0  0.7679942846936954  0.35542867338745654  0.18279172579957653  1.0000
  W   W113      1.0  0.13931059117699587  0.3570345258274601  0.18279172579957653  1.0000
  W   W114      1.0  0.40451866404715126  0.3610402355250245  0.18279172579957653  1.0000
  W   W115      1.0  0.6618757108882225  0.36589019162233366  0.18279172579957653  1.0000
  W   W116      1.0  0.03356254092992796  0.3691527641478574  0.18279172579957653  1.0000
  W   W117      1.0  0.29700179379858205  0.37095191364082436  0.18279172579957653  1.0000
  W   W118      1.0  0.9263261296660118  0.3719332679097154  0.18279172579957653  1.0000
  W   W119      1.0  0.5617223313686969  0.37667648020935557  0.18279172579957653  1.0000
  W   W120      1.0  0.19373024686085247  0.380765456329735  0.18279172579957653  1.0000
  W   W121      1.0  0.8233464309102816  0.3845273143604841  0.18279172579957653  1.0000
  W   W122      1.0  0.45579567779960706  0.3882749498655972  0.18279172579957653  1.0000
  W   W123      1.0  0.08999546622336406  0.3922397523967691  0.18279172579957653  1.0000
  W   W124      1.0  0.7185892038544298  0.39123323519790654  0.18279172579957653  1.0000
  W   W125      1.0  0.35265225933202354  0.3984298331697743  0.18279172579957653  1.0000
  W   W126      1.0  0.9805604384241547  0.39925623676463  0.18279172579957653  1.0000
  W   W127      1.0  0.6149312377210215  0.40201390963007216  0.18279172579957653  1.0000
  W   W128      1.0  0.24775100816875195  0.40710707091575854  0.18279172579957653  1.0000
  W   W129      1.0  0.8770368658268809  0.4084742827454829  0.18279172579957653  1.0000
  W   W130      1.0  0.51098410430434  0.4123472209831386  0.18279172579957653  1.0000
  W   W131      1.0  0.7733429841795058  0.4146480037188162  0.18279172579957653  1.0000
  W   W132      1.0  0.14341846758349705  0.41643555062508003  0.18279172579957653  1.0000
  W   W133      1.0  0.4097818219418881  0.42177573472444607  0.18279172579957653  1.0000
  W   W134      1.0  0.6718329331295934  0.4270708392396322  0.18279172579957653  1.0000
  W   W135      1.0  0.04109364767518009  0.4280340202813216  0.18279172579957653  1.0000
  W   W136      1.0  0.303089837470977  0.43188509233651534  0.18279172579957653  1.0000
  W   W137      1.0  0.9304820915822881  0.4325507662112177  0.18279172579957653  1.0000
  W   W138      1.0  0.5667274768453551  0.4364222627225572  0.18279172579957653  1.0000
  W   W139      1.0  0.8288454871142956  0.44080124689718875  0.18279172579957653  1.0000
  W   W140      1.0  0.19765951994533185  0.4434867943849469  0.18279172579957653  1.0000
  W   W141      1.0  0.4631184140025004  0.44562405210099026  0.18279172579957653  1.0000
  W   W142      1.0  0.0951297694137111  0.45162956458860604  0.18279172579957653  1.0000
  W   W143      1.0  0.7267369173066619  0.4512445356410028  0.18279172579957653  1.0000
  W   W144      1.0  0.3589926772637971  0.45740030332768317  0.18279172579957653  1.0000
  W   W145      1.0  0.9833005893909627  0.45829244357212956  0.18279172579957653  1.0000
  W   W146      1.0  0.6237721021611001  0.4602551521099117  0.18279172579957653  1.0000
  W   W147      1.0  0.8850109788512656  0.46585464411476074  0.18279172579957653  1.0000
  W   W148      1.0  0.25343811394891946  0.4674659726074156  0.18279172579957653  1.0000
  W   W149      1.0  0.5185884842073447  0.47044613874839586  0.18279172579957653  1.0000
  W   W150      1.0  0.14913377388819432  0.47711660272994916  0.18279172579957653  1.0000
  W   W151      1.0  0.7826809732507178  0.47618328678191296  0.18279172579957653  1.0000
  W   W152      1.0  0.4148799863329632  0.4808635917566242  0.18279172579957653  1.0000
  W   W153      1.0  0.047151277013752456  0.4867517173699706  0.18279172579957653  1.0000
  W   W154      1.0  0.6777996070726916  0.48837308529248635  0.18279172579957653  1.0000
  W   W155      1.0  0.3091028159790439  0.4928851815505398  0.18279172579957653  1.0000
  W   W156      1.0  0.5756385068762279  0.4965652600588813  0.18279172579957653  1.0000
  W   W157      1.0  0.9369351669941061  0.4959764474975466  0.18279172579957653  1.0000
  W   W158      1.0  0.20414359707090549  0.5022749576233384  0.18279172579957653  1.0000
  W   W159      1.0  0.836521559301003  0.501730282526729  0.18279172579957653  1.0000
  W   W160      1.0  0.4693844138834315  0.5065423617926071  0.18279172579957653  1.0000
  W   W161      1.0  0.7311254560763402  0.5106780690686481  0.18279172579957653  1.0000
  W   W162      1.0  0.10003274394237065  0.5121033693163233  0.18279172579957653  1.0000
  W   W163      1.0  0.9941060903732809  0.5149223575593143  0.18279172579957653  1.0000
  W   W164      1.0  0.36558611656843487  0.5179914949296697  0.18279172579957653  1.0000
  W   W165      1.0  0.627373935821873  0.5207719986915277  0.18279172579957653  1.0000
  W   W166      1.0  0.2598678335417039  0.5241323936122759  0.18279172579957653  1.0000
  W   W167      1.0  0.8908075690207838  0.5262124890243274  0.18279172579957653  1.0000
  W   W168      1.0  0.5235756385068763  0.5318940137389598  0.18279172579957653  1.0000
  W   W169      1.0  0.7861962928162637  0.5358194308145241  0.18279172579957653  1.0000
  W   W170      1.0  0.15422396856581533  0.5377821393523062  0.18279172579957653  1.0000
  W   W171      1.0  0.42141453831041253  0.5407262021589794  0.18279172579957653  1.0000
  W   W172      1.0  0.0498362802881467  0.5468760222440302  0.18279172579957653  1.0000
  W   W173      1.0  0.6835297969875573  0.5457965325482499  0.18279172579957653  1.0000
  W   W174      1.0  0.31687950229207595  0.5534020281321557  0.18279172579957653  1.0000
  W   W175      1.0  0.6159135559921415  0.5515210991167812  0.18279172579957653  1.0000
  W   W176      1.0  0.9447590431064371  0.5523292732205739  0.18279172579957653  1.0000
  W   W177      1.0  0.5785854616895875  0.5589357758150693  0.18279172579957653  1.0000
  W   W178      1.0  0.21005239030779307  0.5614982008505071  0.18279172579957653  1.0000
  W   W179      1.0  0.8432032931050613  0.5616150287396608  0.18279172579957653  1.0000
  W   W180      1.0  0.10510805500982319  0.5691854759568205  0.18279172579957653  1.0000
  W   W181      1.0  0.4779796987557302  0.5689401373895977  0.18279172579957653  1.0000
  W   W182      1.0  0.7392927308447937  0.5713444553483809  0.18279172579957653  1.0000
  W   W183      1.0  0.37131630648330055  0.577036310107949  0.18279172579957653  1.0000
  W   W184      1.0  0.6349348097874621  0.5794450887679544  0.18279172579957653  1.0000
  W   W185      1.0  1.0  0.577036310107949  0.18279172579957653  1.0000
  W   W186      1.0  0.0014734774066797642  0.5809617271835132  0.18279172579957653  1.0000
  W   W187      1.0  0.8972775750771822  0.5858684985279686  0.18279172579957653  1.0000
  W   W188      1.0  0.2670268500327439  0.588976120379457  0.18279172579957653  1.0000
  W   W189      1.0  0.528632758495234  0.591938356413332  0.18279172579957653  1.0000
  W   W190      1.0  0.16340650892628344  0.5966633954857704  0.18279172579957653  1.0000
  W   W191      1.0  0.7958564029290944  0.5968418235346596  0.18279172579957653  1.0000
  W   W192      1.0  0.4247031690441616  0.6045142296368989  0.18279172579957653  1.0000
  W   W193      1.0  0.6915520628683695  0.6068182787899475  0.18279172579957653  1.0000
  W   W194      1.0  0.05566470203012442  0.6084396467124633  0.18279172579957653  1.0000
  W   W195      1.0  0.3203994760969221  0.6141642132809946  0.18279172579957653  1.0000
  W   W196      1.0  0.951577487576563  0.6132886913352191  0.18279172579957653  1.0000
  W   W197      1.0  0.5892123593498839  0.6180747613524847  0.18279172579957653  1.0000
  W   W198      1.0  0.8495502016337504  0.6223852073756522  0.18279172579957653  1.0000
  W   W199      1.0  0.21611001964636542  0.6237999743994539  0.18279172579957653  1.0000
  W   W200      1.0  0.25245579567779963  0.6211972522080472  0.18279172579957653  1.0000
  W   W201      1.0  0.4830443324506706  0.6276400563212016  0.18279172579957653  1.0000
  W   W202      1.0  0.7445972495088409  0.6329735034347399  0.18279172579957653  1.0000
  W   W203      1.0  0.11100196463654224  0.6359175662414132  0.18279172579957653  1.0000
  W   W204      1.0  0.37703161278799785  0.6396645552680883  0.18279172579957653  1.0000
  W   W205      1.0  0.6420944733919877  0.6418056918547596  0.18279172579957653  1.0000
  W   W206      1.0  0.27060283321269774  0.6484169206136047  0.18279172579957653  1.0000
  W   W207      1.0  0.90098231827112  0.6484789008832189  0.18279172579957653  1.0000
  W   W208      1.0  0.5386520884940633  0.6516192345436704  0.18279172579957653  1.0000
  W   W209      1.0  0.16627373935821874  0.6582270199542036  0.18279172579957653  1.0000
  W   W210      1.0  0.7996963743525629  0.658934784548131  0.18279172579957653  1.0000
  W   W211      1.0  0.4351669941060904  0.6633954857703631  0.18279172579957653  1.0000
  W   W212      1.0  0.0994106090373281  0.6645731108930324  0.18279172579957653  1.0000
  W   W213      1.0  0.696308551339055  0.6671143019472136  0.18279172579957653  1.0000
  W   W214      1.0  0.06304697267369173  0.6710678918726025  0.18279172579957653  1.0000
  W   W215      1.0  0.3299833761523349  0.6749452706273119  0.18279172579957653  1.0000
  W   W216      1.0  0.9578180977695596  0.6725163077988802  0.18279172579957653  1.0000
  W   W217      1.0  0.593320235756385  0.6774757861501046  0.18279172579957653  1.0000
  W   W218      1.0  0.8546168958742633  0.6840039254170756  0.18279172579957653  1.0000
  W   W219      1.0  0.4901768172888016  0.6869479882237488  0.18279172579957653  1.0000
  W   W220      1.0  0.11765150370258426  0.694119423265645  0.18279172579957653  1.0000
  W   W221      1.0  0.7507858546168957  0.6950932286555447  0.18279172579957653  1.0000
  W   W222      1.0  0.3833005893909626  0.6988223748773308  0.18279172579957653  1.0000
  W   W223      1.0  0.6479883830187068  0.7026496565260059  0.18279172579957653  1.0000
  W   W224      1.0  0.01493123772102161  0.705397448478901  0.18279172579957653  1.0000
  W   W225      1.0  0.9115913555992141  0.708196441524086  0.18279172579957653  1.0000
  W   W226      1.0  0.2815475290917334  0.7104250018872198  0.18279172579957653  1.0000
  W   W227      1.0  0.5423289873191642  0.7110357748238022  0.18279172579957653  1.0000
  W   W228      1.0  0.2089448746099619  0.7153495352998904  0.18279172579957653  1.0000
  W   W229      1.0  0.8058426582386606  0.7163886162904809  0.18279172579957653  1.0000
  W   W230      1.0  0.17431684229326666  0.7184405388527078  0.18279172579957653  1.0000
  W   W231      1.0  0.4400785854616896  0.7252208047105005  0.18279172579957653  1.0000
  W   W232      1.0  0.7035184854438292  0.728343295566063  0.18279172579957653  1.0000
  W   W233      1.0  0.9656188605108055  0.7305637335077964  0.18279172579957653  1.0000
  W   W234      1.0  0.06951071194686126  0.7324641338380299  0.18279172579957653  1.0000
  W   W235      1.0  0.335204415754514  0.7341464554418431  0.18279172579957653  1.0000
  W   W236      1.0  0.5998186489345625  0.7379029214161698  0.18279172579957653  1.0000
  W   W237      1.0  0.8610019646365423  0.7411678115799805  0.18279172579957653  1.0000
  W   W238      1.0  0.2319164136452938  0.7472566687483273  0.18279172579957653  1.0000
  W   W239      1.0  0.49328749181401443  0.7479555119398104  0.18279172579957653  1.0000
  W   W240      1.0  0.7603143418467584  0.753025842329081  0.18279172579957653  1.0000
  W   W241      1.0  0.12596787241419163  0.7567973214801131  0.18279172579957653  1.0000
  W   W242      1.0  0.39068200954252036  0.7591943548763962  0.18279172579957653  1.0000
  W   W243      1.0  0.654402571887837  0.7617093407083594  0.18279172579957653  1.0000
  W   W244      1.0  0.02082514734774067  0.7639842983316978  0.18279172579957653  1.0000
  W   W245      1.0  0.28626391617550756  0.7693817468105988  0.18279172579957653  1.0000
  W   W246      1.0  0.9137345954634756  0.7692033187617094  0.18279172579957653  1.0000
  W   W247      1.0  0.5520628683693517  0.7752698724239451  0.18279172579957653  1.0000
  W   W248      1.0  0.18021075191998573  0.779284503523954  0.18279172579957653  1.0000
  W   W249      1.0  0.81237721021611  0.7782139352306183  0.18279172579957653  1.0000
  W   W250      1.0  0.21676489849377864  0.7785410533202487  0.18279172579957653  1.0000
  W   W251      1.0  0.44580877537655533  0.7832842656198888  0.18279172579957653  1.0000
  W   W252      1.0  0.7092337917485265  0.7890088321884201  0.18279172579957653  1.0000
  W   W253      1.0  0.07563850687622789  0.7911980070959463  0.18279172579957653  1.0000
  W   W254      1.0  0.33988212180746563  0.7939156035328754  0.18279172579957653  1.0000
  W   W255      1.0  0.9685658153241651  0.7919528949950932  0.18279172579957653  1.0000
  W   W256      1.0  0.6063488780891325  0.7993388771241156  0.18279172579957653  1.0000
  W   W257      1.0  0.8655957471397202  0.8049414073774751  0.18279172579957653  1.0000
  W   W258      1.0  0.23654223968565816  0.8065161923454368  0.18279172579957653  1.0000
  W   W259      1.0  0.5009823182711198  0.8063318684131929  0.18279172579957653  1.0000
  W   W260      1.0  0.7645852908516272  0.8125613346418057  0.18279172579957653  1.0000
  W   W261      1.0  0.12932433586742975  0.8164867517173701  0.18279172579957653  1.0000
  W   W262      1.0  0.3967838172160372  0.8180133028023117  0.18279172579957653  1.0000
  W   W263      1.0  0.6630648330058938  0.821938719877876  0.18279172579957653  1.0000
  W   W264      1.0  0.9209779524121371  0.8271726093119617  0.18279172579957653  1.0000
  W   W265      1.0  0.024230517354289455  0.8295714753025843  0.18279172579957653  1.0000
  W   W266      1.0  0.2925853161609546  0.8310253334787191  0.18279172579957653  1.0000
  W   W267      1.0  0.5581204977079239  0.8339875695125941  0.18279172579957653  1.0000
  W   W268      1.0  0.8163064833005894  0.8380765456329736  0.18279172579957653  1.0000
  W   W269      1.0  0.45211198428290766  0.8426561988877985  0.18279172579957653  1.0000
  W   W270      1.0  0.18689672845306227  0.8455860391688357  0.18279172579957653  1.0000
  W   W271      1.0  0.7164374590700721  0.8481704752558532  0.18279172579957653  1.0000
  W   W272      1.0  0.08153241650294696  0.8498527968596664  0.18279172579957653  1.0000
  W   W273      1.0  0.9753765553372625  0.8540399084069349  0.18279172579957653  1.0000
  W   W274      1.0  0.34598283528073626  0.8546046175300864  0.18279172579957653  1.0000
  W   W275      1.0  0.6112286534683391  0.8590624292292595  0.18279172579957653  1.0000
  W   W276      1.0  0.8722200392927308  0.8604514229636898  0.18279172579957653  1.0000
  W   W277      1.0  0.24181401440733466  0.8634281975793263  0.18279172579957653  1.0000
  W   W278      1.0  0.5037559228013406  0.8672862668129078  0.18279172579957653  1.0000
  W   W279      1.0  0.1373790293240195  0.8742049213099262  0.18279172579957653  1.0000
  W   W280      1.0  0.17328094302554028  0.872423945044161  0.18279172579957653  1.0000
  W   W281      1.0  0.7700619616140244  0.8740092096323696  0.18279172579957653  1.0000
  W   W282      1.0  0.4027504911591355  0.8809147928489142  0.18279172579957653  1.0000
  W   W283      1.0  0.6660117878192534  0.8859292490303287  0.18279172579957653  1.0000
  W   W284      1.0  0.03362551004987155  0.8877481693968446  0.18279172579957653  1.0000
  W   W285      1.0  0.9280943025540275  0.8863591756624143  0.18279172579957653  1.0000
  W   W286      1.0  0.2982111467273291  0.8898300707608079  0.18279172579957653  1.0000
  W   W287      1.0  0.5636935166994106  0.8938174681059863  0.18279172579957653  1.0000
  W   W288      1.0  0.8243833224186858  0.8965216443135973  0.18279172579957653  1.0000
  W   W289      1.0  0.1954813359528487  0.900883218842002  0.18279172579957653  1.0000
  W   W290      1.0  0.4591355599214145  0.9046123650637881  0.18279172579957653  1.0000
  W   W291      1.0  0.7220039292730845  0.9087340529931306  0.18279172579957653  1.0000
  W   W292      1.0  0.08858724772280765  0.910875189579802  0.18279172579957653  1.0000
  W   W293      1.0  0.9786345776031434  0.9129048086359177  0.18279172579957653  1.0000
  W   W294      1.0  0.35249715644710994  0.9167914880429731  0.18279172579957653  1.0000
  W   W295      1.0  0.6190176817288802  0.9177625122669285  0.18279172579957653  1.0000
  W   W296      1.0  0.8798154950029897  0.9224730127576055  0.18279172579957653  1.0000
  W   W297      1.0  0.2516371971185331  0.9242721622505725  0.18279172579957653  1.0000
  W   W298      1.0  0.5111627076263618  0.9273797841020609  0.18279172579957653  1.0000
  W   W299      1.0  0.7761348361079516  0.9341459635349414  0.18279172579957653  1.0000
  W   W300      1.0  0.14243614931237722  0.9366481299749211  0.18279172579957653  1.0000
  W   W301      1.0  0.4095903368987849  0.9397012321448044  0.18279172579957653  1.0000
  W   W302      1.0  0.67565636720843  0.9438843786243198  0.18279172579957653  1.0000
  W   W303      1.0  0.30631958087753763  0.9481517827935885  0.18279172579957653  1.0000
  W   W304      1.0  0.9320649364078172  0.9477816228500595  0.18279172579957653  1.0000
  W   W305      1.0  0.5697445972495089  0.9538763493621197  0.18279172579957653  1.0000
  W   W306      1.0  0.8303174439044567  0.9573885646402562  0.18279172579957653  1.0000
  W   W307      1.0  0.20016623847665105  0.962331093832566  0.18279172579957653  1.0000
  W   W308      1.0  0.4666011787819253  0.9617271835132484  0.18279172579957653  1.0000
  W   W309      1.0  0.09233791748526522  0.9666339548577038  0.18279172579957653  1.0000
  W   W310      1.0  0.7298624754420433  0.9676153091265948  0.18279172579957653  1.0000
  W   W311      1.0  0.9860407403577707  0.9707143226073034  0.18279172579957653  1.0000
  W   W312      1.0  0.35952848722986247  0.9735034347399412  0.18279172579957653  1.0000
  W   W313      1.0  0.6269155206286837  0.9773307163886163  0.18279172579957653  1.0000
  W   W314      1.0  0.25512208812798204  0.9820085050703304  0.18279172579957653  1.0000
  W   W315      1.0  0.8831041257367387  0.9823356231599608  0.18279172579957653  1.0000
  W   W316      1.0  0.5234119187950229  0.9877330716388617  0.18279172579957653  1.0000
  W   W317      1.0  0.7796140067028775  0.9919759856837731  0.18279172579957653  1.0000
  W   W318      1.0  0.022593320235756383  0.9892051030421983  0.18279172579957653  1.0000
  W   W319      1.0  0.1468565815324165  0.9959519136408245  0.18279172579957653  1.0000
  W   W320      1.0  0.4165029469548133  0.9995794195990467  0.18279172579957653  1.0000
  W   W321      1.0  0.5320890635232481  0.001635590448151783  -0.7311669031983061  1.0000
  W   W322      1.0  0.5923379174852653  0.006869479882237488  -0.7311669031983061  1.0000
  W   W323      1.0  0.650294695481336  0.007850834151128559  -0.7311669031983061  1.0000
  W   W324      1.0  0.0800589390962672  0.01447497546614328  -0.7311669031983061  1.0000
  W   W325      1.0  0.7099576052114569  0.018077578637467076  -0.7311669031983061  1.0000
  W   W326      1.0  0.13850687622789784  0.018645731108930325  -0.7311669031983061  1.0000
  W   W327      1.0  0.7693890915894844  0.021589793915603537  -0.7311669031983061  1.0000
  W   W328      1.0  0.19799170486793274  0.022571148184494603  -0.7311669031983061  1.0000
  W   W329      1.0  0.25916830386378514  0.025351651946352634  -0.7311669031983061  1.0000
  W   W330      1.0  0.8298624754420433  0.026692836113837097  -0.7311669031983061  1.0000
  W   W331      1.0  0.8878371137703162  0.02765634757783924  -0.7311669031983061  1.0000
  W   W332      1.0  0.3176666162913707  0.03329055635238167  -0.7311669031983061  1.0000
  W   W333      1.0  0.9451538965291421  0.033529604187111546  -0.7311669031983061  1.0000
  W   W334      1.0  0.37740667976424364  0.03591756624141316  -0.7311669031983061  1.0000
  W   W335      1.0  0.43713163064833005  0.042198233562316  -0.7311669031983061  1.0000
  W   W336      1.0  0.49705304518664045  0.048726372829287025  -0.7311669031983061  1.0000
  W   W337      1.0  0.554206108233613  0.054777411009010624  -0.7311669031983061  1.0000
  W   W338      1.0  0.6141828047525493  0.058881256133464184  -0.7311669031983061  1.0000
  W   W339      1.0  0.045186640471512766  0.06084396467124632  -0.7311669031983061  1.0000
  W   W340      1.0  0.6742120099086016  0.06280667320902847  -0.7311669031983061  1.0000
  W   W341      1.0  0.10609037328094303  0.06551708023739428  -0.7311669031983061  1.0000
  W   W342      1.0  0.7345776031434184  0.06859666339548579  -0.7311669031983061  1.0000
  W   W343      1.0  0.16387778605785513  0.07174038103617475  -0.7311669031983061  1.0000
  W   W344      1.0  0.22426326129666013  0.07566241413150147  -0.7311669031983061  1.0000
  W   W345      1.0  0.792428593017984  0.07601721144410056  -0.7311669031983061  1.0000
  W   W346      1.0  0.28412386565628217  0.08047105004906771  -0.7311669031983061  1.0000
  W   W347      1.0  0.8536345776031434  0.07948969578017664  -0.7311669031983061  1.0000
  W   W348      1.0  0.9111547697009387  0.08341511285574094  -0.7311669031983061  1.0000
  W   W349      1.0  0.3457760314341847  0.08601783504714769  -0.7311669031983061  1.0000
  W   W350      1.0  0.9716861204206634  0.08612826877561625  -0.7311669031983061  1.0000
  W   W351      1.0  0.4027504911591355  0.09126594700686949  -0.7311669031983061  1.0000
  W   W352      1.0  0.4616895874263261  0.09583137773605838  -0.7311669031983061  1.0000
  W   W353      1.0  0.5206286836935167  0.10206084396467126  -0.7311669031983061  1.0000
  W   W354      1.0  0.5799770792403405  0.1077036310107949  -0.7311669031983061  1.0000
  W   W355      1.0  0.011001964636542239  0.11108930323846909  -0.7311669031983061  1.0000
  W   W356      1.0  0.6386854795499196  0.11365866714247481  -0.7311669031983061  1.0000
  W   W357      1.0  0.07285527177472169  0.11563624468433105  -0.7311669031983061  1.0000
  W   W358      1.0  0.6997522849577176  0.11776251226692837  -0.7311669031983061  1.0000
  W   W359      1.0  0.12868369351669942  0.12125177188965217  -0.7311669031983061  1.0000
  W   W360      1.0  0.19056974459724949  0.12399197849554124  -0.7311669031983061  1.0000
  W   W361      1.0  0.7593898070033513  0.12295791721988109  -0.7311669031983061  1.0000
  W   W362      1.0  0.819627654598185  0.12785644188980794  -0.7311669031983061  1.0000
  W   W363      1.0  0.2498505167848296  0.1295387634936212  -0.7311669031983061  1.0000
  W   W364      1.0  0.8778508584607501  0.13150147203140333  -0.7311669031983061  1.0000
  W   W365      1.0  0.30844793713163066  0.13508554849170115  -0.7311669031983061  1.0000
  W   W366      1.0  0.937328094302554  0.13483807654563298  -0.7311669031983061  1.0000
  W   W367      1.0  0.9976936875373709  0.13935230618253192  -0.7311669031983061  1.0000
  W   W368      1.0  0.3677287093192107  0.14131501472031405  -0.7311669031983061  1.0000
  W   W369      1.0  0.42632612966601174  0.1452404317958783  -0.7311669031983061  1.0000
  W   W370      1.0  0.4870661427635887  0.15129211645403992  -0.7311669031983061  1.0000
  W   W371      1.0  0.5443680419122462  0.15521753352960418  -0.7311669031983061  1.0000
  W   W372      1.0  0.6049294516878015  0.16112052814702474  -0.7311669031983061  1.0000
  W   W373      1.0  0.037764680200829515  0.16584887144259078  -0.7311669031983061  1.0000
  W   W374      1.0  0.6660117878192534  0.16584887144259078  -0.7311669031983061  1.0000
  W   W375      1.0  0.0964309102815979  0.17059208374223098  -0.7311669031983061  1.0000
  W   W376      1.0  0.7249508840864439  0.1717369970559372  -0.7311669031983061  1.0000
  W   W377      1.0  0.15700720366732154  0.17451750081779524  -0.7311669031983061  1.0000
  W   W378      1.0  0.7833541703875692  0.17477027388705507  -0.7311669031983061  1.0000
  W   W379      1.0  0.21493123772102163  0.1785279685966634  -0.7311669031983061  1.0000
  W   W380      1.0  0.8429927963326784  0.180732744520772  -0.7311669031983061  1.0000
  W   W381      1.0  0.27550249357714973  0.18547595682041218  -0.7311669031983061  1.0000
  W   W382      1.0  0.9023996632051642  0.18512547315295108  -0.7311669031983061  1.0000
  W   W383      1.0  0.3339882121807466  0.18876136024235185  -0.7311669031983061  1.0000
  W   W384      1.0  0.9628505090194677  0.19056115621375683  -0.7311669031983061  1.0000
  W   W385      1.0  0.3929273084479371  0.19396680462516536  -0.7311669031983061  1.0000
  W   W386      1.0  0.45579567779960706  0.19985493023851175  -0.7311669031983061  1.0000
  W   W387      1.0  0.5120217045560856  0.20608439646712465  -0.7311669031983061  1.0000
  W   W388      1.0  0.571502429945197  0.20887350859976245  -0.7311669031983061  1.0000
  W   W389      1.0  0.0029469548133595285  0.21295387634936214  -0.7311669031983061  1.0000
  W   W390      1.0  0.6298998970904668  0.2139352306182532  -0.7311669031983061  1.0000
  W   W391      1.0  0.060903732809430254  0.21860834618440117  -0.7311669031983061  1.0000
  W   W392      1.0  0.6892457504057402  0.21786064769381747  -0.7311669031983061  1.0000
  W   W393      1.0  0.1237721021611002  0.22537014122967958  -0.7311669031983061  1.0000
  W   W394      1.0  0.7495088408644401  0.22473012757605498  -0.7311669031983061  1.0000
  W   W395      1.0  0.18254747871643748  0.22751063133791302  -0.7311669031983061  1.0000
  W   W396      1.0  0.809088579482361  0.22767419038272818  -0.7311669031983061  1.0000
  W   W397      1.0  0.24173959635649223  0.23302703184940676  -0.7311669031983061  1.0000
  W   W398      1.0  0.8691177846384134  0.2335623159960746  -0.7311669031983061  1.0000
  W   W399      1.0  0.3022123515845221  0.2374877330716389  -0.7311669031983061  1.0000
  W   W400      1.0  0.9296147603997609  0.23945044160942103  -0.7311669031983061  1.0000
  W   W401      1.0  0.3613294040602488  0.24353941772980048  -0.7311669031983061  1.0000
  W   W402      1.0  0.9891944990176817  0.24577472467560793  -0.7311669031983061  1.0000
  W   W403      1.0  0.41846758349705304  0.24828263002944065  -0.7311669031983061  1.0000
  W   W404      1.0  0.4775852830862654  0.25220804710500494  -0.7311669031983061  1.0000
  W   W405      1.0  0.5363457760314342  0.2561334641805692  -0.7311669031983061  1.0000
  W   W406      1.0  0.5956265482190142  0.26104023552502453  -0.7311669031983061  1.0000
  W   W407      1.0  0.03127046496398166  0.26512921164540404  -0.7311669031983061  1.0000
  W   W408      1.0  0.6565302810284445  0.2649656526005888  -0.7311669031983061  1.0000
  W   W409      1.0  0.08857236411263916  0.27069021916912006  -0.7311669031983061  1.0000
  W   W410      1.0  0.7150383997142346  0.2713890623606031  -0.7311669031983061  1.0000
  W   W411      1.0  0.14940593133127517  0.2763680545819898  -0.7311669031983061  1.0000
  W   W412      1.0  0.7770137524557956  0.2777232580961727  -0.7311669031983061  1.0000
  W   W413      1.0  0.20841519318925997  0.2827935884854433  -0.7311669031983061  1.0000
  W   W414      1.0  0.8349705304518664  0.28425139736314375  -0.7311669031983061  1.0000
  W   W415      1.0  0.26719056974459726  0.28621410590092594  -0.7311669031983061  1.0000
  W   W416      1.0  0.8939989283800679  0.2870907306628602  -0.7311669031983061  1.0000
  W   W417      1.0  0.32612966601178783  0.29406494005205447  -0.7311669031983061  1.0000
  W   W418      1.0  0.9530451866404716  0.2938174681059863  -0.7311669031983061  1.0000
  W   W419      1.0  0.3852324819908317  0.29653254824991826  -0.7311669031983061  1.0000
  W   W420      1.0  0.44187950229207595  0.3004579653254825  -0.7311669031983061  1.0000
  W   W421      1.0  0.5049115913555993  0.3049675218468153  -0.7311669031983061  1.0000
  W   W422      1.0  0.5643418467583498  0.30961727183513255  -0.7311669031983061  1.0000
  W   W423      1.0  0.6237721021611001  0.31501472031403344  -0.7311669031983061  1.0000
  W   W424      1.0  0.05521662702926274  0.3187851867155623  -0.7311669031983061  1.0000
  W   W425      1.0  0.6787819253438114  0.32188420019627084  -0.7311669031983061  1.0000
  W   W426      1.0  0.11557188007175194  0.3258096172718352  -0.7311669031983061  1.0000
  W   W427      1.0  0.7406679764243616  0.3267909715407262  -0.7311669031983061  1.0000
  W   W428      1.0  0.17322969163748186  0.3297350343473995  -0.7311669031983061  1.0000
  W   W429      1.0  0.7997856760135738  0.3318761709340709  -0.7311669031983061  1.0000
  W   W430      1.0  0.232356052591809  0.33630255906997814  -0.7311669031983061  1.0000
  W   W431      1.0  0.8589827548570182  0.3366045142296369  -0.7311669031983061  1.0000
  W   W432      1.0  0.291107884171863  0.34151128557409227  -0.7311669031983061  1.0000
  W   W433      1.0  0.9192712984461512  0.3416897136229816  -0.7311669031983061  1.0000
  W   W434      1.0  0.3516699410609037  0.34509536203439006  -0.7311669031983061  1.0000
  W   W435      1.0  0.9793713163064833  0.34587286010249707  -0.7311669031983061  1.0000
  W   W436      1.0  0.41214657896984713  0.3508981524939199  -0.7311669031983061  1.0000
  W   W437      1.0  0.46972673691730665  0.3534659648496744  -0.7311669031983061  1.0000
  W   W438      1.0  0.5301101904843256  0.35917566241413157  -0.7311669031983061  1.0000
  W   W439      1.0  0.5884086444007859  0.36462763057463743  -0.7311669031983061  1.0000
  W   W440      1.0  0.021611001964636545  0.36997055937193335  -0.7311669031983061  1.0000
  W   W441      1.0  0.6465440257188784  0.3691676331519315  -0.7311669031983061  1.0000
  W   W442      1.0  0.08089177415221661  0.3748773307163887  -0.7311669031983061  1.0000
  W   W443      1.0  0.7071798535452759  0.3754126148630565  -0.7311669031983061  1.0000
  W   W444      1.0  0.7665499273938668  0.37880274779195294  -0.7311669031983061  1.0000
  W   W445      1.0  0.13948919449901767  0.3804241157144686  -0.7311669031983061  1.0000
  W   W446      1.0  0.1990327943176666  0.38461538461538464  -0.7311669031983061  1.0000
  W   W447      1.0  0.8241650294695481  0.3846908734052994  -0.7311669031983061  1.0000
  W   W448      1.0  0.2594957432874918  0.390742558063461  -0.7311669031983061  1.0000
  W   W449      1.0  0.8845230299061341  0.3915603532875368  -0.7311669031983061  1.0000
  W   W450      1.0  0.3184497231648509  0.39468284414309934  -0.7311669031983061  1.0000
  W   W451      1.0  0.37899624933023757  0.39664555268088153  -0.7311669031983061  1.0000
  W   W452      1.0  0.944007858546169  0.3954857703631011  -0.7311669031983061  1.0000
  W   W453      1.0  0.4381139489194499  0.402696590860605  -0.7311669031983061  1.0000
  W   W454      1.0  0.4954300845647903  0.40824337585868503  -0.7311669031983061  1.0000
  W   W455      1.0  0.5541168065726023  0.41163350878758137  -0.7311669031983061  1.0000
  W   W456      1.0  0.6139489194499017  0.41805691854759575  -0.7311669031983061  1.0000
  W   W457      1.0  0.04809721312668268  0.42278195762003423  -0.7311669031983061  1.0000
  W   W458      1.0  0.6709233791748527  0.42422543109491095  -0.7311669031983061  1.0000
  W   W459      1.0  0.10771333390279321  0.4298331697742886  -0.7311669031983061  1.0000
  W   W460      1.0  0.7323182711198428  0.42934249263984303  -0.7311669031983061  1.0000
  W   W461      1.0  0.1650294695481336  0.4340999274651193  -0.7311669031983061  1.0000
  W   W462      1.0  0.7910551253900381  0.4347976678404434  -0.7311669031983061  1.0000
  W   W463      1.0  0.22559152643717434  0.4376840039254171  -0.7311669031983061  1.0000
  W   W464      1.0  0.8516699410609037  0.4386653581943082  -0.7311669031983061  1.0000
  W   W465      1.0  0.2840450832385482  0.44377873043747745  -0.7311669031983061  1.0000
  W   W466      1.0  0.9098231827111986  0.44494602551521095  -0.7311669031983061  1.0000
  W   W467      1.0  0.3428290766208251  0.4484789008832189  -0.7311669031983061  1.0000
  W   W468      1.0  0.9687969490350168  0.44865208104831733  -0.7311669031983061  1.0000
  W   W469      1.0  0.4007858546168959  0.45338567222767423  -0.7311669031983061  1.0000
  W   W470      1.0  0.4613479115059366  0.4573110893032385  -0.7311669031983061  1.0000
  W   W471      1.0  0.52079240340537  0.46336277396140013  -0.7311669031983061  1.0000
  W   W472      1.0  0.5805500982318271  0.465161923454367  -0.7311669031983061  1.0000
  W   W473      1.0  0.013545651949126254  0.4718764526625691  -0.7311669031983061  1.0000
  W   W474      1.0  0.6390426861939632  0.472923543581051  -0.7311669031983061  1.0000
  W   W475      1.0  0.07106859144101818  0.47693817468105987  -0.7311669031983061  1.0000
  W   W476      1.0  0.6994106090373281  0.47693817468105987  -0.7311669031983061  1.0000
  W   W477      1.0  0.13108867962875143  0.48397685357517517  -0.7311669031983061  1.0000
  W   W478      1.0  0.7565815324165029  0.48537782139352315  -0.7311669031983061  1.0000
  W   W479      1.0  0.18942370661427635  0.4873241740268237  -0.7311669031983061  1.0000
  W   W480      1.0  0.8163064833005894  0.48969578017664384  -0.7311669031983061  1.0000
  W   W481      1.0  0.24950884086444008  0.49263984298331703  -0.7311669031983061  1.0000
  W   W482      1.0  0.8760641781270465  0.49247628393850185  -0.7311669031983061  1.0000
  W   W483      1.0  0.3094302554027505  0.4965652600588813  -0.7311669031983061  1.0000
  W   W484      1.0  0.9357984844232389  0.4978970979952334  -0.7311669031983061  1.0000
  W   W485      1.0  0.36951538965291425  0.5026169447170429  -0.7311669031983061  1.0000
  W   W486      1.0  0.4281121628862297  0.5062003746989028  -0.7311669031983061  1.0000
  W   W487      1.0  0.9950884086444007  0.5058180288798543  -0.7311669031983061  1.0000
  W   W488      1.0  0.48722986247544203  0.5119255877458719  -0.7311669031983061  1.0000
  W   W489      1.0  0.5481335952848723  0.5165336860519691  -0.7311669031983061  1.0000
  W   W490      1.0  0.6051080550098231  0.5230618253189402  -0.7311669031983061  1.0000
  W   W491      1.0  0.03544204322200393  0.5267909715407262  -0.7311669031983061  1.0000
  W   W492      1.0  0.6620825147347741  0.525664547510347  -0.7311669031983061  1.0000
  W   W493      1.0  0.09666011787819254  0.531658488714426  -0.7311669031983061  1.0000
  W   W494      1.0  0.7228225278323511  0.5317304546941447  -0.7311669031983061  1.0000
  W   W495      1.0  0.7826971653101319  0.5361699144819851  -0.7311669031983061  1.0000
  W   W496      1.0  0.15422396856581533  0.5375017524183373  -0.7311669031983061  1.0000
  W   W497      1.0  0.21611001964636542  0.5407262021589794  -0.7311669031983061  1.0000
  W   W498      1.0  0.8402750491159136  0.5415112855740922  -0.7311669031983061  1.0000
  W   W499      1.0  0.2730844793713163  0.5475956820412169  -0.7311669031983061  1.0000
  W   W500      1.0  0.9022047587862911  0.5466143277723259  -0.7311669031983061  1.0000
  W   W501      1.0  0.33478861966091833  0.5516664849343947  -0.7311669031983061  1.0000
  W   W502      1.0  0.9622353197991705  0.5525024533856723  -0.7311669031983061  1.0000
  W   W503      1.0  0.3932689843683266  0.5574092247301277  -0.7311669031983061  1.0000
  W   W504      1.0  0.45203012442698104  0.5614982008505071  -0.7311669031983061  1.0000
  W   W505      1.0  0.5127701375245579  0.5652600588812562  -0.7311669031983061  1.0000
  W   W506      1.0  0.5711362148002619  0.5731108930323847  -0.7311669031983061  1.0000
  W   W507      1.0  0.0006548788474132285  0.5740922473012758  -0.7311669031983061  1.0000
  W   W508      1.0  0.6282121807465619  0.5746810598626105  -0.7311669031983061  1.0000
  W   W509      1.0  0.061082336131452045  0.5791774466946203  -0.7311669031983061  1.0000
  W   W510      1.0  0.6879644657042795  0.5789990186457312  -0.7311669031983061  1.0000
  W   W511      1.0  0.74690356197147  0.5848871442590775  -0.7311669031983061  1.0000
  W   W512      1.0  0.12082514734774066  0.5872860102497002  -0.7311669031983061  1.0000
  W   W513      1.0  0.18305287434868028  0.590775269872424  -0.7311669031983061  1.0000
  W   W514      1.0  0.8104125736738704  0.590775269872424  -0.7311669031983061  1.0000
  W   W515      1.0  0.23952193844138836  0.5968269545305855  -0.7311669031983061  1.0000
  W   W516      1.0  0.8681510587208033  0.5961181986697198  -0.7311669031983061  1.0000
  W   W517      1.0  0.2989664303408217  0.6025515210991168  -0.7311669031983061  1.0000
  W   W518      1.0  0.9263261296660118  0.6021153636462764  -0.7311669031983061  1.0000
  W   W519      1.0  0.35952848722986247  0.6064769381746811  -0.7311669031983061  1.0000
  W   W520      1.0  0.9862475442043223  0.6068182787899475  -0.7311669031983061  1.0000
  W   W521      1.0  0.41830386378519974  0.6102387962054302  -0.7311669031983061  1.0000
  W   W522      1.0  0.47544204322200395  0.6123650637880275  -0.7311669031983061  1.0000
  W   W523      1.0  0.5365094957432874  0.6184167484461891  -0.7311669031983061  1.0000
  W   W524      1.0  0.5970709055188427  0.6239628869658311  -0.7311669031983061  1.0000
  W   W525      1.0  0.028094302554027506  0.6282630029440629  -0.7311669031983061  1.0000
  W   W526      1.0  0.656188605108055  0.6290480863591758  -0.7311669031983061  1.0000
  W   W527      1.0  0.08849794606179674  0.6353822820947453  -0.7311669031983061  1.0000
  W   W528      1.0  0.7131630648330058  0.6349362119725221  -0.7311669031983061  1.0000
  W   W529      1.0  0.14538310412573674  0.6395016427017111  -0.7311669031983061  1.0000
  W   W530      1.0  0.7736302117441607  0.6408243375858687  -0.7311669031983061  1.0000
  W   W531      1.0  0.20530451866404717  0.6447497546614328  -0.7311669031983061  1.0000
  W   W532      1.0  0.8330058939096266  0.6447497546614328  -0.7311669031983061  1.0000
  W   W533      1.0  0.26506221349050424  0.6494929669610731  -0.7311669031983061  1.0000
  W   W534      1.0  0.8929273084479371  0.6510839503970025  -0.7311669031983061  1.0000
  W   W535      1.0  0.32197370409551157  0.6541858534007702  -0.7311669031983061  1.0000
  W   W536      1.0  0.3831827111984283  0.6582924435721296  -0.7311669031983061  1.0000
  W   W537      1.0  0.9513206723422833  0.6565260058881257  -0.7311669031983061  1.0000
  W   W538      1.0  0.443222003929273  0.6629244357212954  -0.7311669031983061  1.0000
  W   W539      1.0  0.5044979836624961  0.6680440059914261  -0.7311669031983061  1.0000
  W   W540      1.0  0.5617223313686969  0.6750081779522408  -0.7311669031983061  1.0000
  W   W541      1.0  0.6210319511942922  0.6779608491296938  -0.7311669031983061  1.0000
  W   W542      1.0  0.051007785781852576  0.6854214371388072  -0.7311669031983061  1.0000
  W   W543      1.0  0.6800449059781084  0.6846114304406747  -0.7311669031983061  1.0000
  W   W544      1.0  0.11164260698727259  0.6869479882237488  -0.7311669031983061  1.0000
  W   W545      1.0  0.740231390526086  0.6898920510304221  -0.7311669031983061  1.0000
  W   W546      1.0  0.17058170325446312  0.6928361138370952  -0.7311669031983061  1.0000
  W   W547      1.0  0.7986247544204322  0.6938174681059863  -0.7311669031983061  1.0000
  W   W548      1.0  0.2318271119842829  0.6987242394504417  -0.7311669031983061  1.0000
  W   W549      1.0  0.8587247722807643  0.6989026674993308  -0.7311669031983061  1.0000
  W   W550      1.0  0.2928945645055665  0.7044488060189729  -0.7311669031983061  1.0000
  W   W551      1.0  0.9155206286836935  0.7053600635543719  -0.7311669031983061  1.0000
  W   W552      1.0  0.35132826514051424  0.7085377821393524  -0.7311669031983061  1.0000
  W   W553      1.0  0.978595801881915  0.7096740870822789  -0.7311669031983061  1.0000
  W   W554      1.0  0.4089860767062441  0.7144259077526988  -0.7311669031983061  1.0000
  W   W555      1.0  0.468565815324165  0.717369970559372  -0.7311669031983061  1.0000
  W   W556      1.0  0.5265225933202358  0.7262021589793917  -0.7311669031983061  1.0000
  W   W557      1.0  0.587426326129666  0.7285062081324403  -0.7311669031983061  1.0000
  W   W558      1.0  0.019646365422396856  0.7304689166702224  -0.7311669031983061  1.0000
  W   W559      1.0  0.6445645055664702  0.7322538436375532  -0.7311669031983061  1.0000
  W   W560      1.0  0.07645710543549443  0.7361792607131175  -0.7311669031983061  1.0000
  W   W561      1.0  0.7058403286301125  0.7378891961816397  -0.7311669031983061  1.0000
  W   W562      1.0  0.1378662338771675  0.7419038272816487  -0.7311669031983061  1.0000
  W   W563      1.0  0.7662082514734774  0.7419038272816487  -0.7311669031983061  1.0000
  W   W564      1.0  0.8253259510626897  0.7460076724061023  -0.7311669031983061  1.0000
  W   W565      1.0  0.19700562292527607  0.7489425061757641  -0.7311669031983061  1.0000
  W   W566      1.0  0.25656697955322705  0.7515719841529459  -0.7311669031983061  1.0000
  W   W567      1.0  0.8832592286216524  0.7538866794070554  -0.7311669031983061  1.0000
  W   W568      1.0  0.3143418467583497  0.7568577970933221  -0.7311669031983061  1.0000
  W   W569      1.0  0.943025540275049  0.758586849852797  -0.7311669031983061  1.0000
  W   W570      1.0  0.37404971384641666  0.7616162478132867  -0.7311669031983061  1.0000
  W   W571      1.0  0.43409537417395966  0.7659916138817022  -0.7311669031983061  1.0000
  W   W572      1.0  1.00024557956778  0.7652109911678117  -0.7311669031983061  1.0000
  W   W573      1.0  0.49296005239030777  0.7715080143931959  -0.7311669031983061  1.0000
  W   W574      1.0  0.5535909190133158  0.7771598880529206  -0.7311669031983061  1.0000
  W   W575      1.0  0.04288032800888358  0.7831207065750736  -0.7311669031983061  1.0000
  W   W576      1.0  0.6129666011787819  0.7821393523061826  -0.7311669031983061  1.0000
  W   W577      1.0  0.10279259051361213  0.7876769942520678  -0.7311669031983061  1.0000
  W   W578      1.0  0.6722473733663621  0.787046123650638  -0.7311669031983061  1.0000
  W   W579      1.0  0.7310233970351848  0.790793112677313  -0.7311669031983061  1.0000
  W   W580      1.0  0.16093647675180095  0.7970232253843639  -0.7311669031983061  1.0000
  W   W581      1.0  0.7907662082514735  0.7958783120706576  -0.7311669031983061  1.0000
  W   W582      1.0  0.22184020956123118  0.80258423290808  -0.7311669031983061  1.0000
  W   W583      1.0  0.8486336845865333  0.8022125078062272  -0.7311669031983061  1.0000
  W   W584      1.0  0.27960987931518383  0.8047105004906772  -0.7311669031983061  1.0000
  W   W585      1.0  0.906679764243615  0.8066732090284594  -0.7311669031983061  1.0000
  W   W586      1.0  0.3418467583497053  0.8089772581815079  -0.7311669031983061  1.0000
  W   W587      1.0  0.9667797821039471  0.8123829065929166  -0.7311669031983061  1.0000
  W   W588      1.0  0.39925780397293165  0.8164140588085633  -0.7311669031983061  1.0000
  W   W589      1.0  0.45990355420610823  0.8202337407440451  -0.7311669031983061  1.0000
  W   W590      1.0  0.5183223712308875  0.8263002944062807  -0.7311669031983061  1.0000
  W   W591      1.0  0.5799094558810968  0.8302257114818451  -0.7311669031983061  1.0000
  W   W592      1.0  0.007760314341846758  0.8323846908734054  -0.7311669031983061  1.0000
  W   W593      1.0  0.6368839156060476  0.8361138370951915  -0.7311669031983061  1.0000
  W   W594      1.0  0.06696136214800262  0.8379129865881584  -0.7311669031983061  1.0000
  W   W595      1.0  0.12770137524557956  0.8420019627085378  -0.7311669031983061  1.0000
  W   W596      1.0  0.6958230118732381  0.8420019627085378  -0.7311669031983061  1.0000
  W   W597      1.0  0.7545841519318925  0.8457638207392869  -0.7311669031983061  1.0000
  W   W598      1.0  0.18844138834315655  0.8480536473666993  -0.7311669031983061  1.0000
  W   W599      1.0  0.8156658409498591  0.8498527968596664  -0.7311669031983061  1.0000
  W   W600      1.0  0.2473804846103471  0.8555773634281977  -0.7311669031983061  1.0000
  W   W601      1.0  0.8730844793713163  0.8556624141315015  -0.7311669031983061  1.0000
  W   W602      1.0  0.30828421741977735  0.8598298985933922  -0.7311669031983061  1.0000
  W   W603      1.0  0.9333988212180746  0.8610402355250246  -0.7311669031983061  1.0000
  W   W604      1.0  0.36666321993589074  0.8651412633644957  -0.7311669031983061  1.0000
  W   W605      1.0  0.4271119842829077  0.8694013738959765  -0.7311669031983061  1.0000
  W   W606      1.0  0.4850866226111805  0.8771522883397271  -0.7311669031983061  1.0000
  W   W607      1.0  0.5442043222003929  0.8809147928489142  -0.7311669031983061  1.0000
  W   W608      1.0  0.6015880812049771  0.884363755315669  -0.7311669031983061  1.0000
  W   W609      1.0  0.03325329258531617  0.8879438810744013  -0.7311669031983061  1.0000
  W   W610      1.0  0.6626870182862324  0.8891824564052239  -0.7311669031983061  1.0000
  W   W611      1.0  0.0961034708578913  0.8912332351979064  -0.7311669031983061  1.0000
  W   W612      1.0  0.1516186896728453  0.8969578017664378  -0.7311669031983061  1.0000
  W   W613      1.0  0.7195481335952849  0.8964671246319922  -0.7311669031983061  1.0000
  W   W614      1.0  0.7821039471334166  0.8990989383531091  -0.7311669031983061  1.0000
  W   W615      1.0  0.21414538310412573  0.9012245594572685  -0.7311669031983061  1.0000
  W   W616      1.0  0.8410430434006072  0.9030243554286734  -0.7311669031983061  1.0000
  W   W617      1.0  0.27342615529170583  0.9067713444553485  -0.7311669031983061  1.0000
  W   W618      1.0  0.9017681728880157  0.9077526987242396  -0.7311669031983061  1.0000
  W   W619      1.0  0.3318449723164851  0.9128378981175841  -0.7311669031983061  1.0000
  W   W620      1.0  0.9592596422293455  0.9153452817519756  -0.7311669031983061  1.0000
  W   W621      1.0  0.3894891944990177  0.9170755642787047  -0.7311669031983061  1.0000
  W   W622      1.0  0.4503759907865321  0.9253832357619032  -0.7311669031983061  1.0000
  W   W623      1.0  0.5088408644400786  0.928361138370952  -0.7311669031983061  1.0000
  W   W624      1.0  0.5659939274870512  0.9344276920331877  -0.7311669031983061  1.0000
  W   W625      1.0  0.6270932734586959  0.9378942941258938  -0.7311669031983061  1.0000
  W   W626      1.0  0.05966290973012098  0.9425132999328548  -0.7311669031983061  1.0000
  W   W627      1.0  0.6858546168958742  0.9420019627085379  -0.7311669031983061  1.0000
  W   W628      1.0  0.11821986845477064  0.9479882237487735  -0.7311669031983061  1.0000
  W   W629      1.0  0.7480353634577603  0.9494602551521101  -0.7311669031983061  1.0000
  W   W630      1.0  0.17850126298063432  0.9512594046450771  -0.7311669031983061  1.0000
  W   W631      1.0  0.806483300589391  0.9534401919092793  -0.7311669031983061  1.0000
  W   W632      1.0  0.23794771044279886  0.9564429682192195  -0.7311669031983061  1.0000
  W   W633      1.0  0.8647817545058512  0.9578017664376841  -0.7311669031983061  1.0000
  W   W634      1.0  0.30021517447843576  0.9618206458245713  -0.7311669031983061  1.0000
  W   W635      1.0  0.9271298446151098  0.9615487554643591  -0.7311669031983061  1.0000
  W   W636      1.0  0.35442043222003927  0.965731108930324  -0.7311669031983061  1.0000
  W   W637      1.0  0.9841043043400607  0.9693995896154877  -0.7311669031983061  1.0000
  W   W638      1.0  0.41552062868369355  0.971540726202159  -0.7311669031983061  1.0000
  W   W639      1.0  0.4755313448830148  0.9779641359621734  -0.7311669031983061  1.0000
  W   W640      1.0  0.5349169494552598  0.9814434829155144  -0.7311669031983061  1.0000
  W   W641      1.0  0.5935270396029367  0.9861060895614896  -0.7311669031983061  1.0000
  W   W642      1.0  0.650294695481336  0.9915810133774083  -0.7311669031983061  1.0000
  W   W643      1.0  0.08447937131630648  0.994680026858117  -0.7311669031983061  1.0000
  W   W644      1.0  0.711416721239904  0.9969468978301167  -0.7311669031983061  1.0000
  W   W645      1.0  0.1444007858546169  0.9976167110612646  -0.7311669031983061  1.0000
  Se  Se1       1.0  0.4535854616895874  0.023307163886162906  0.22581241130063517  1.0000
  Se  Se2       1.0  0.4535854616895874  0.023307163886162906  0.1397710402985179  1.0000
  Se  Se3       1.0  0.6129666011787819  0.03729146221786065  0.22581241130063517  1.0000
  Se  Se4       1.0  0.6129666011787819  0.03729146221786065  0.1397710402985179  1.0000
  Se  Se5       1.0  0.2455795677799607  0.03925417075564279  0.22581241130063517  1.0000
  Se  Se6       1.0  0.2455795677799607  0.03925417075564279  0.1397710402985179  1.0000
  Se  Se7       1.0  0.13922724296005237  0.04998364409551849  0.22581241130063517  1.0000
  Se  Se8       1.0  0.13922724296005237  0.04998364409551849  0.1397710402985179  1.0000
  Se  Se9       1.0  0.4027504911591355  0.057259888210948504  0.22581241130063517  1.0000
  Se  Se10      1.0  0.4027504911591355  0.057259888210948504  0.1397710402985179  1.0000
  Se  Se11      1.0  0.3007679942846937  0.0649478097956999  0.22581241130063517  1.0000
  Se  Se12      1.0  0.3007679942846937  0.0649478097956999  0.1397710402985179  1.0000
  Se  Se13      1.0  0.45841519318926  0.08112528622832843  0.22581241130063517  1.0000
  Se  Se14      1.0  0.45841519318926  0.08112528622832843  0.1397710402985179  1.0000
  Se  Se15      1.0  0.25343811394891946  0.10043947604215557  0.22581241130063517  1.0000
  Se  Se16      1.0  0.25343811394891946  0.10043947604215557  0.1397710402985179  1.0000
  Se  Se17      1.0  0.5216110019646365  0.16683022571148187  0.22581241130063517  1.0000
  Se  Se18      1.0  0.5216110019646365  0.16683022571148187  0.1397710402985179  1.0000
  Se  Se19      1.0  0.050324920658908874  0.18373971465237415  0.22581241130063517  1.0000
  Se  Se20      1.0  0.050324920658908874  0.18373971465237415  0.1397710402985179  1.0000
  Se  Se21      1.0  0.10584479371316306  0.20583905789990187  0.22581241130063517  1.0000
  Se  Se22      1.0  0.10584479371316306  0.20583905789990187  0.1397710402985179  1.0000
  Se  Se23      1.0  0.2632612966601179  0.21926258236366186  0.22581241130063517  1.0000
  Se  Se24      1.0  0.2632612966601179  0.21926258236366186  0.1397710402985179  1.0000
  Se  Se25      1.0  0.5283086265404536  0.22553305379605676  0.22581241130063517  1.0000
  Se  Se26      1.0  0.5283086265404536  0.22553305379605676  0.1397710402985179  1.0000
  Se  Se27      1.0  0.4223968565815324  0.2359175662414132  0.22581241130063517  1.0000
  Se  Se28      1.0  0.4223968565815324  0.2359175662414132  0.1397710402985179  1.0000
  Se  Se29      1.0  0.2137524557956778  0.2561727183513249  0.22581241130063517  1.0000
  Se  Se30      1.0  0.2137524557956778  0.2561727183513249  0.1397710402985179  1.0000
  Se  Se31      1.0  0.37622789783889976  0.2718351324828263  0.22581241130063517  1.0000
  Se  Se32      1.0  0.37622789783889976  0.2718351324828263  0.1397710402985179  1.0000
  Se  Se33      1.0  0.26893691333769915  0.2831752262566787  0.22581241130063517  1.0000
  Se  Se34      1.0  0.26893691333769915  0.2831752262566787  0.1397710402985179  1.0000
  Se  Se35      1.0  0.5314341846758349  0.2855740922473013  0.22581241130063517  1.0000
  Se  Se36      1.0  0.5314341846758349  0.2855740922473013  0.1397710402985179  1.0000
  Se  Se37      1.0  0.42992796332678457  0.29800457965325483  0.22581241130063517  1.0000
  Se  Se38      1.0  0.42992796332678457  0.29800457965325483  0.1397710402985179  1.0000
  Se  Se39      1.0  0.0636239987909929  0.3015022269193025  0.22581241130063517  1.0000
  Se  Se40      1.0  0.0636239987909929  0.3015022269193025  0.1397710402985179  1.0000
  Se  Se41      1.0  0.6925343811394892  0.3012757605495584  0.22581241130063517  1.0000
  Se  Se42      1.0  0.6925343811394892  0.3012757605495584  0.1397710402985179  1.0000
  Se  Se43      1.0  0.3280943025540275  0.3081452404317959  0.22581241130063517  1.0000
  Se  Se44      1.0  0.3280943025540275  0.3081452404317959  0.1397710402985179  1.0000
  Se  Se45      1.0  0.2220039292730845  0.31599607458292445  0.22581241130063517  1.0000
  Se  Se46      1.0  0.2220039292730845  0.31599607458292445  0.1397710402985179  1.0000
  Se  Se47      1.0  0.012770137524557957  0.3385672227674191  0.22581241130063517  1.0000
  Se  Se48      1.0  0.012770137524557957  0.3385672227674191  0.1397710402985179  1.0000
  Se  Se49      1.0  0.3336139956965104  0.36889574279171927  0.22581241130063517  1.0000
  Se  Se50      1.0  0.3336139956965104  0.36889574279171927  0.1397710402985179  1.0000
  Se  Se51      1.0  0.4919449901768173  0.38194308145240435  0.22581241130063517  1.0000
  Se  Se52      1.0  0.4919449901768173  0.38194308145240435  0.1397710402985179  1.0000
  Se  Se53      1.0  0.12352652259332024  0.3868989205103042  0.22581241130063517  1.0000
  Se  Se54      1.0  0.12352652259332024  0.3868989205103042  0.1397710402985179  1.0000
  Se  Se55      1.0  0.020401994861719813  0.3976749452706273  0.22581241130063517  1.0000
  Se  Se56      1.0  0.020401994861719813  0.3976749452706273  0.1397710402985179  1.0000
  Se  Se57      1.0  0.1787033398821218  0.41138370951913644  0.22581241130063517  1.0000
  Se  Se58      1.0  0.1787033398821218  0.41138370951913644  0.1397710402985179  1.0000
  Se  Se59      1.0  0.3948919449901768  0.45338567222767423  0.22581241130063517  1.0000
  Se  Se60      1.0  0.3948919449901768  0.45338567222767423  0.1397710402985179  1.0000
  Se  Se61      1.0  0.025976860947391395  0.45632973503434743  0.22581241130063517  1.0000
  Se  Se62      1.0  0.025976860947391395  0.45632973503434743  0.1397710402985179  1.0000
  Se  Se63      1.0  0.6569442345473778  0.4565562014040915  0.22581241130063517  1.0000
  Se  Se64      1.0  0.6569442345473778  0.4565562014040915  0.1397710402985179  1.0000
  Se  Se65      1.0  0.2891290111329404  0.46156362446843313  0.22581241130063517  1.0000
  Se  Se66      1.0  0.2891290111329404  0.46156362446843313  0.1397710402985179  1.0000
  Se  Se67      1.0  0.4007858546168959  0.5122669283611384  0.22581241130063517  1.0000
  Se  Se68      1.0  0.4007858546168959  0.5122669283611384  0.1397710402985179  1.0000
  Se  Se69      1.0  0.29282014645472404  0.5215451869033813  0.22581241130063517  1.0000
  Se  Se70      1.0  0.29282014645472404  0.5215451869033813  0.1397710402985179  1.0000
  Se  Se71      1.0  0.5584479371316307  0.5291952894995094  0.22581241130063517  1.0000
  Se  Se72      1.0  0.5584479371316307  0.5291952894995094  0.1397710402985179  1.0000
  Se  Se73      1.0  0.18850687622789786  0.5323846908734053  0.22581241130063517  1.0000
  Se  Se74      1.0  0.18850687622789786  0.5323846908734053  0.1397710402985179  1.0000
  Se  Se75      1.0  0.4559742811216289  0.5379605674011955  0.22581241130063517  1.0000
  Se  Se76      1.0  0.4559742811216289  0.5379605674011955  0.1397710402985179  1.0000
  Se  Se77      1.0  0.2457581711019825  0.5575876527790168  0.22581241130063517  1.0000
  Se  Se78      1.0  0.2457581711019825  0.5575876527790168  0.1397710402985179  1.0000
  Se  Se79      1.0  0.13905260860074217  0.5662414131501472  0.22581241130063517  1.0000
  Se  Se80      1.0  0.13905260860074217  0.5662414131501472  0.1397710402985179  1.0000
  Se  Se81      1.0  0.5105599214145383  0.5655053974484789  0.22581241130063517  1.0000
  Se  Se82      1.0  0.5105599214145383  0.5655053974484789  0.1397710402985179  1.0000
  Se  Se83      1.0  0.4076620825147348  0.5735470504852253  0.22581241130063517  1.0000
  Se  Se84      1.0  0.4076620825147348  0.5735470504852253  0.1397710402985179  1.0000
  Se  Se85      1.0  0.6709233791748527  0.5775970839758867  0.22581241130063517  1.0000
  Se  Se86      1.0  0.6709233791748527  0.5775970839758867  0.1397710402985179  1.0000
  Se  Se87      1.0  0.30199270277855744  0.5839057899901865  0.22581241130063517  1.0000
  Se  Se88      1.0  0.30199270277855744  0.5839057899901865  0.1397710402985179  1.0000
  Se  Se89      1.0  0.5655051183952022  0.588502659986571  0.22581241130063517  1.0000
  Se  Se90      1.0  0.5655051183952022  0.588502659986571  0.1397710402985179  1.0000
  Se  Se91      1.0  0.19646365422396855  0.5947006869479883  0.22581241130063517  1.0000
  Se  Se92      1.0  0.19646365422396855  0.5947006869479883  0.1397710402985179  1.0000
  Se  Se93      1.0  0.462671905697446  0.5976447497546615  0.22581241130063517  1.0000
  Se  Se94      1.0  0.462671905697446  0.5976447497546615  0.1397710402985179  1.0000
  Se  Se95      1.0  0.09071495686341505  0.6045142296368989  0.22581241130063517  1.0000
  Se  Se96      1.0  0.09071495686341505  0.6045142296368989  0.1397710402985179  1.0000
  Se  Se97      1.0  0.35756385068762275  0.6094210009813543  0.22581241130063517  1.0000
  Se  Se98      1.0  0.35756385068762275  0.6094210009813543  0.1397710402985179  1.0000
  Se  Se99      1.0  0.2537000654878847  0.6192999672881911  0.22581241130063517  1.0000
  Se  Se100     1.0  0.2537000654878847  0.6192999672881911  0.1397710402985179  1.0000
  Se  Se101     1.0  0.14579671181883982  0.6300294406280669  0.22581241130063517  1.0000
  Se  Se102     1.0  0.14579671181883982  0.6300294406280669  0.1397710402985179  1.0000
  Se  Se103     1.0  0.04346758349705304  0.6420510304219824  0.22581241130063517  1.0000
  Se  Se104     1.0  0.04346758349705304  0.6420510304219824  0.1397710402985179  1.0000
  Se  Se105     1.0  0.5725404261750038  0.6485996829470824  0.22581241130063517  1.0000
  Se  Se106     1.0  0.5725404261750038  0.6485996829470824  0.1397710402985179  1.0000
  Se  Se107     1.0  0.20235756385068762  0.6555446516192346  0.22581241130063517  1.0000
  Se  Se108     1.0  0.20235756385068762  0.6555446516192346  0.1397710402985179  1.0000
  Se  Se109     1.0  0.36327915699232005  0.6710678918726025  0.22581241130063517  1.0000
  Se  Se110     1.0  0.36327915699232005  0.6710678918726025  0.1397710402985179  1.0000
  Se  Se111     1.0  0.25916118561544377  0.6802065110722363  0.22581241130063517  1.0000
  Se  Se112     1.0  0.25916118561544377  0.6802065110722363  0.1397710402985179  1.0000
  Se  Se113     1.0  0.5225933202357563  0.6830225711481845  0.22581241130063517  1.0000
  Se  Se114     1.0  0.5225933202357563  0.6830225711481845  0.1397710402985179  1.0000
  Se  Se115     1.0  0.22396856581532415  0.6849852796859667  0.22581241130063517  1.0000
  Se  Se116     1.0  0.22396856581532415  0.6849852796859667  0.1397710402985179  1.0000
  Se  Se117     1.0  0.15258677144728225  0.6925907752698724  0.22581241130063517  1.0000
  Se  Se118     1.0  0.15258677144728225  0.6925907752698724  0.1397710402985179  1.0000
  Se  Se119     1.0  0.04833005893909627  0.7034347399411187  0.22581241130063517  1.0000
  Se  Se120     1.0  0.04833005893909627  0.7034347399411187  0.1397710402985179  1.0000
  Se  Se121     1.0  0.5776031434184676  0.7055937193326791  0.22581241130063517  1.0000
  Se  Se122     1.0  0.5776031434184676  0.7055937193326791  0.1397710402985179  1.0000
  Se  Se123     1.0  0.10440639910188045  0.7259217720454226  0.22581241130063517  1.0000
  Se  Se124     1.0  0.10440639910188045  0.7259217720454226  0.1397710402985179  1.0000
  Se  Se125     1.0  0.26522593320235754  0.7415624866663822  0.22581241130063517  1.0000
  Se  Se126     1.0  0.26522593320235754  0.7415624866663822  0.1397710402985179  1.0000
  Se  Se127     1.0  0.5306304697267369  0.7440449638683201  0.22581241130063517  1.0000
  Se  Se128     1.0  0.5306304697267369  0.7440449638683201  0.1397710402985179  1.0000
  Se  Se129     1.0  0.15992141453831044  0.7509322865554466  0.22581241130063517  1.0000
  Se  Se130     1.0  0.15992141453831044  0.7509322865554466  0.1397710402985179  1.0000
  Se  Se131     1.0  0.05508840864440079  0.7623159960745829  0.22581241130063517  1.0000
  Se  Se132     1.0  0.05508840864440079  0.7623159960745829  0.1397710402985179  1.0000
  Se  Se133     1.0  0.21807465618860508  0.7782139352306183  0.22581241130063517  1.0000
  Se  Se134     1.0  0.21807465618860508  0.7782139352306183  0.1397710402985179  1.0000
  Se  Se135     1.0  0.10805500982318271  0.7880274779195291  0.22581241130063517  1.0000
  Se  Se136     1.0  0.10805500982318271  0.7880274779195291  0.1397710402985179  1.0000
  Se  Se137     1.0  0.37426326129666015  0.787046123650638  0.22581241130063517  1.0000
  Se  Se138     1.0  0.37426326129666015  0.787046123650638  0.1397710402985179  1.0000
  Se  Se139     1.0  0.2712653714618351  0.8019481699560208  0.22581241130063517  1.0000
  Se  Se140     1.0  0.2712653714618351  0.8019481699560208  0.1397710402985179  1.0000
  Se  Se141     1.0  0.5345597428112162  0.8029262200017843  0.22581241130063517  1.0000
  Se  Se142     1.0  0.5345597428112162  0.8029262200017843  0.1397710402985179  1.0000
  Se  Se143     1.0  0.16777996070726917  0.8137389597644751  0.22581241130063517  1.0000
  Se  Se144     1.0  0.16777996070726917  0.8137389597644751  0.1397710402985179  1.0000
  Se  Se145     1.0  0.060903732809430254  0.8213935230618253  0.22581241130063517  1.0000
  Se  Se146     1.0  0.060903732809430254  0.8213935230618253  0.1397710402985179  1.0000
  Se  Se147     1.0  0.3243436327915699  0.8264787224551701  0.22581241130063517  1.0000
  Se  Se148     1.0  0.3243436327915699  0.8264787224551701  0.1397710402985179  1.0000
  Se  Se149     1.0  0.22298624754420432  0.8351324828263004  0.22581241130063517  1.0000
  Se  Se150     1.0  0.22298624754420432  0.8351324828263004  0.1397710402985179  1.0000
  Se  Se151     1.0  0.4862475442043222  0.8390578999018646  0.22581241130063517  1.0000
  Se  Se152     1.0  0.4862475442043222  0.8390578999018646  0.1397710402985179  1.0000
  Se  Se153     1.0  0.11609215931416325  0.847176376126327  0.22581241130063517  1.0000
  Se  Se154     1.0  0.11609215931416325  0.847176376126327  0.1397710402985179  1.0000
  Se  Se155     1.0  0.38076527271026284  0.8501331837936353  0.22581241130063517  1.0000
  Se  Se156     1.0  0.38076527271026284  0.8501331837936353  0.1397710402985179  1.0000
  Se  Se157     1.0  0.6481514556170745  0.8555624944241236  0.22581241130063517  1.0000
  Se  Se158     1.0  0.6481514556170745  0.8555624944241236  0.1397710402985179  1.0000
  Se  Se159     1.0  0.43778650949574327  0.877003598298986  0.22581241130063517  1.0000
  Se  Se160     1.0  0.43778650949574327  0.877003598298986  0.1397710402985179  1.0000
  Se  Se161     1.0  0.33209913858243917  0.8865403487582095  0.22581241130063517  1.0000
  Se  Se162     1.0  0.33209913858243917  0.8865403487582095  0.1397710402985179  1.0000
  Se  Se163     1.0  0.06719056974459725  0.8840039254170756  0.22581241130063517  1.0000
  Se  Se164     1.0  0.06719056974459725  0.8840039254170756  0.1397710402985179  1.0000
  Se  Se165     1.0  0.22750491159135558  0.8949950932286557  0.22581241130063517  1.0000
  Se  Se166     1.0  0.22750491159135558  0.8949950932286557  0.1397710402985179  1.0000
  Se  Se167     1.0  0.49312377210216113  0.8989205103042199  0.22581241130063517  1.0000
  Se  Se168     1.0  0.49312377210216113  0.8989205103042199  0.1397710402985179  1.0000
  Se  Se169     1.0  0.1237721021611002  0.9097154072620217  0.22581241130063517  1.0000
  Se  Se170     1.0  0.1237721021611002  0.9097154072620217  0.1397710402985179  1.0000
  Se  Se171     1.0  0.17935494433529797  0.9323683349689239  0.22581241130063517  1.0000
  Se  Se172     1.0  0.17935494433529797  0.9323683349689239  0.1397710402985179  1.0000
  Se  Se173     1.0  0.9672560576293386  0.9414458619561663  0.22581241130063517  1.0000
  Se  Se174     1.0  0.9672560576293386  0.9414458619561663  0.1397710402985179  1.0000
  Se  Se175     1.0  0.12868369351669942  0.9666339548577038  0.22581241130063517  1.0000
  Se  Se176     1.0  0.12868369351669942  0.9666339548577038  0.1397710402985179  1.0000
  Se  Se177     1.0  0.3418467583497053  1.000981354268891  0.22581241130063517  1.0000
  Se  Se178     1.0  0.3418467583497053  1.000981354268891  0.1397710402985179  1.0000
  S   S1        1.0  0.6585461689587425  0.003140333660451423  0.22581241130063517  1.0000
  S   S2        1.0  0.6585461689587425  0.003140333660451423  0.1397710402985179  1.0000
  S   S3        1.0  0.2949137742850906  0.007196597971867845  0.22581241130063517  1.0000
  S   S4        1.0  0.2949137742850906  0.007196597971867845  0.1397710402985179  1.0000
  S   S5        1.0  0.9290275049115914  0.00760549558390579  0.22581241130063517  1.0000
  S   S6        1.0  0.9290275049115914  0.00760549558390579  0.1397710402985179  1.0000
  S   S7        1.0  0.5599214145383105  0.012117591841959296  0.22581241130063517  1.0000
  S   S8        1.0  0.5599214145383105  0.012117591841959296  0.1397710402985179  1.0000
  S   S9        1.0  0.19003393463118415  0.016683022571148187  0.22581241130063517  1.0000
  S   S10       1.0  0.19003393463118415  0.016683022571148187  0.1397710402985179  1.0000
  S   S11       1.0  0.8194320414359706  0.018378089035596398  0.22581241130063517  1.0000
  S   S12       1.0  0.8194320414359706  0.018378089035596398  0.1397710402985179  1.0000
  S   S13       1.0  0.45402750491159133  0.022963689892051033  0.22581241130063517  1.0000
  S   S14       1.0  0.45402750491159133  0.022963689892051033  0.1397710402985179  1.0000
  S   S15       1.0  0.08742632612966601  0.026496565260058884  0.22581241130063517  1.0000
  S   S16       1.0  0.08742632612966601  0.026496565260058884  0.1397710402985179  1.0000
  S   S17       1.0  0.7163367084781624  0.028232807428096928  0.22581241130063517  1.0000
  S   S18       1.0  0.7163367084781624  0.028232807428096928  0.1397710402985179  1.0000
  S   S19       1.0  0.3482318271119843  0.03189401373895977  0.22581241130063517  1.0000
  S   S20       1.0  0.3482318271119843  0.03189401373895977  0.1397710402985179  1.0000
  S   S21       1.0  0.613064833005894  0.03709519136408243  0.22581241130063517  1.0000
  S   S22       1.0  0.613064833005894  0.03709519136408243  0.1397710402985179  1.0000
  S   S23       1.0  0.24536127483082296  0.03979936757169339  0.22581241130063517  1.0000
  S   S24       1.0  0.24536127483082296  0.03979936757169339  0.1397710402985179  1.0000
  S   S25       1.0  0.8726403006748099  0.03925417075564279  0.22581241130063517  1.0000
  S   S26       1.0  0.8726403006748099  0.03925417075564279  0.1397710402985179  1.0000
  S   S27       1.0  0.5074120378639042  0.04897849942010884  0.22581241130063517  1.0000
  S   S28       1.0  0.5074120378639042  0.04897849942010884  0.1397710402985179  1.0000
  S   S29       1.0  0.13920853213584058  0.0506565727370438  0.22581241130063517  1.0000
  S   S30       1.0  0.13920853213584058  0.0506565727370438  0.1397710402985179  1.0000
  S   S31       1.0  0.7698919449901768  0.04931305201177626  0.22581241130063517  1.0000
  S   S32       1.0  0.7698919449901768  0.04931305201177626  0.1397710402985179  1.0000
  S   S33       1.0  0.40400071441328805  0.05674011954679277  0.22581241130063517  1.0000
  S   S34       1.0  0.40400071441328805  0.05674011954679277  0.1397710402985179  1.0000
  S   S35       1.0  0.03732809430255403  0.061825318940137396  0.22581241130063517  1.0000
  S   S36       1.0  0.03732809430255403  0.061825318940137396  0.1397710402985179  1.0000
  S   S37       1.0  0.6678978388998035  0.06202158979391561  0.22581241130063517  1.0000
  S   S38       1.0  0.6678978388998035  0.06202158979391561  0.1397710402985179  1.0000
  S   S39       1.0  0.9292730844793714  0.06407666108641691  0.22581241130063517  1.0000
  S   S40       1.0  0.9292730844793714  0.06407666108641691  0.1397710402985179  1.0000
  S   S41       1.0  0.30058939096267195  0.0647693817468106  0.22581241130063517  1.0000
  S   S42       1.0  0.30058939096267195  0.0647693817468106  0.1397710402985179  1.0000
  S   S43       1.0  0.5648330058939096  0.07218405844509869  0.22581241130063517  1.0000
  S   S44       1.0  0.5648330058939096  0.07218405844509869  0.1397710402985179  1.0000
  S   S45       1.0  0.8248056718202785  0.0745829244357213  0.22581241130063517  1.0000
  S   S46       1.0  0.8248056718202785  0.0745829244357213  0.1397710402985179  1.0000
  S   S47       1.0  0.19762788328603653  0.07669101879111694  0.22581241130063517  1.0000
  S   S48       1.0  0.19762788328603653  0.07669101879111694  0.1397710402985179  1.0000
  S   S49       1.0  0.4583333333333333  0.08186130192999673  0.22581241130063517  1.0000
  S   S50       1.0  0.4583333333333333  0.08186130192999673  0.1397710402985179  1.0000
  S   S51       1.0  0.09194499017681729  0.08588812561334642  0.22581241130063517  1.0000
  S   S52       1.0  0.09194499017681729  0.08588812561334642  0.1397710402985179  1.0000
  S   S53       1.0  0.7208430076799429  0.08653760371130342  0.22581241130063517  1.0000
  S   S54       1.0  0.7208430076799429  0.08653760371130342  0.1397710402985179  1.0000
  S   S55       1.0  0.3557778174674049  0.09242572932464985  0.22581241130063517  1.0000
  S   S56       1.0  0.3557778174674049  0.09242572932464985  0.1397710402985179  1.0000
  S   S57       1.0  0.7596594629993452  0.0896303565587177  0.22581241130063517  1.0000
  S   S58       1.0  0.7596594629993452  0.0896303565587177  0.1397710402985179  1.0000
  S   S59       1.0  0.9827111984282908  0.09224730127576056  0.22581241130063517  1.0000
  S   S60       1.0  0.9827111984282908  0.09224730127576056  0.1397710402985179  1.0000
  S   S61       1.0  0.6176196877261917  0.09575951655389701  0.22581241130063517  1.0000
  S   S62       1.0  0.6176196877261917  0.09575951655389701  0.1397710402985179  1.0000
  S   S63       1.0  0.25343811394891946  0.09981774849292023  0.22581241130063517  1.0000
  S   S64       1.0  0.25343811394891946  0.09981774849292023  0.1397710402985179  1.0000
  S   S65       1.0  0.8805842658238661  0.10129282758032172  0.22581241130063517  1.0000
  S   S66       1.0  0.8805842658238661  0.10129282758032172  0.1397710402985179  1.0000
  S   S67       1.0  0.5147347740667977  0.10598626104023554  0.22581241130063517  1.0000
  S   S68       1.0  0.5147347740667977  0.10598626104023554  0.1397710402985179  1.0000
  S   S69       1.0  0.14752634398999823  0.11009010616468912  0.22581241130063517  1.0000
  S   S70       1.0  0.14752634398999823  0.11009010616468912  0.1397710402985179  1.0000
  S   S71       1.0  0.7778174674048938  0.11062539031135696  0.22581241130063517  1.0000
  S   S72       1.0  0.7778174674048938  0.11062539031135696  0.1397710402985179  1.0000
  S   S73       1.0  0.40980006934011326  0.11753160538013048  0.22581241130063517  1.0000
  S   S74       1.0  0.40980006934011326  0.11753160538013048  0.1397710402985179  1.0000
  S   S75       1.0  0.043713163064833006  0.12428150848170477  0.22581241130063517  1.0000
  S   S76       1.0  0.043713163064833006  0.12428150848170477  0.1397710402985179  1.0000
  S   S77       1.0  0.6738703339882122  0.12463199214916586  0.22581241130063517  1.0000
  S   S78       1.0  0.6738703339882122  0.12463199214916586  0.1397710402985179  1.0000
  S   S79       1.0  0.9340027650440224  0.12415948824192201  0.22581241130063517  1.0000
  S   S80       1.0  0.9340027650440224  0.12415948824192201  0.1397710402985179  1.0000
  S   S81       1.0  0.30746561886051077  0.12757605495583907  0.22581241130063517  1.0000
  S   S82       1.0  0.30746561886051077  0.12757605495583907  0.1397710402985179  1.0000
  S   S83       1.0  0.5699628901986465  0.1325191727546978  0.22581241130063517  1.0000
  S   S84       1.0  0.5699628901986465  0.1325191727546978  0.1397710402985179  1.0000
  S   S85       1.0  0.8325147347740668  0.13591756624141316  0.22581241130063517  1.0000
  S   S86       1.0  0.8325147347740668  0.13591756624141316  0.1397710402985179  1.0000
  S   S87       1.0  0.20289337381675296  0.1374788116691944  0.22581241130063517  1.0000
  S   S88       1.0  0.20289337381675296  0.1374788116691944  0.1397710402985179  1.0000
  S   S89       1.0  0.4644546314487376  0.14116962890270054  0.22581241130063517  1.0000
  S   S90       1.0  0.4644546314487376  0.14116962890270054  0.1397710402985179  1.0000
  S   S91       1.0  0.7290438768827767  0.14507687275106315  0.22581241130063517  1.0000
  S   S92       1.0  0.7290438768827767  0.14507687275106315  0.1397710402985179  1.0000
  S   S93       1.0  0.0993092084415996  0.1480262116559562  0.22581241130063517  1.0000
  S   S94       1.0  0.0993092084415996  0.1480262116559562  0.1397710402985179  1.0000
  S   S95       1.0  0.362770137524558  0.14995093228655548  0.22581241130063517  1.0000
  S   S96       1.0  0.362770137524558  0.14995093228655548  0.1397710402985179  1.0000
  S   S97       1.0  0.988905581879117  0.14824222132425102  0.22581241130063517  1.0000
  S   S98       1.0  0.988905581879117  0.14824222132425102  0.1397710402985179  1.0000
  S   S99       1.0  0.6257367387033399  0.1560353287536801  0.22581241130063517  1.0000
  S   S100      1.0  0.6257367387033399  0.1560353287536801  0.1397710402985179  1.0000
  S   S101      1.0  0.25944117005020734  0.1594155490131938  0.22581241130063517  1.0000
  S   S102      1.0  0.25944117005020734  0.1594155490131938  0.1397710402985179  1.0000
  S   S103      1.0  0.8870333988212181  0.16050594264529494  0.22581241130063517  1.0000
  S   S104      1.0  0.8870333988212181  0.16050594264529494  0.1397710402985179  1.0000
  S   S105      1.0  0.5206286836935167  0.1664888850962154  0.22581241130063517  1.0000
  S   S106      1.0  0.5206286836935167  0.1664888850962154  0.1397710402985179  1.0000
  S   S107      1.0  0.15443751601605873  0.17263301617101165  0.22581241130063517  1.0000
  S   S108      1.0  0.15443751601605873  0.17263301617101165  0.1397710402985179  1.0000
  S   S109      1.0  0.7823182711198429  0.17287536800785086  0.22581241130063517  1.0000
  S   S110      1.0  0.7823182711198429  0.17287536800785086  0.1397710402985179  1.0000
  S   S111      1.0  0.4163064833005894  0.1747791952894995  0.22581241130063517  1.0000
  S   S112      1.0  0.4163064833005894  0.1747791952894995  0.1397710402985179  1.0000
  S   S113      1.0  0.6793276577166557  0.18155053974484792  0.22581241130063517  1.0000
  S   S114      1.0  0.6793276577166557  0.18155053974484792  0.1397710402985179  1.0000
  S   S115      1.0  0.0508494163873801  0.18368642844772848  0.22581241130063517  1.0000
  S   S116      1.0  0.0508494163873801  0.18368642844772848  0.1397710402985179  1.0000
  S   S117      1.0  0.31335952848722987  0.18799943922613208  0.22581241130063517  1.0000
  S   S118      1.0  0.31335952848722987  0.18799943922613208  0.1397710402985179  1.0000
  S   S119      1.0  0.5757840355089864  0.18958310616799334  0.22581241130063517  1.0000
  S   S120      1.0  0.5757840355089864  0.18958310616799334  0.1397710402985179  1.0000
  S   S121      1.0  0.9408823004107877  0.1885984476759747  0.22581241130063517  1.0000
  S   S122      1.0  0.9408823004107877  0.1885984476759747  0.1397710402985179  1.0000
  S   S123      1.0  0.8370988867059594  0.19643441282302912  0.22581241130063517  1.0000
  S   S124      1.0  0.8370988867059594  0.19643441282302912  0.1397710402985179  1.0000
  S   S125      1.0  0.206286836935167  0.19725220804710503  0.22581241130063517  1.0000
  S   S126      1.0  0.206286836935167  0.19725220804710503  0.1397710402985179  1.0000
  S   S127      1.0  0.4722612031059968  0.20215897939156038  0.22581241130063517  1.0000
  S   S128      1.0  0.4722612031059968  0.20215897939156038  0.1397710402985179  1.0000
  S   S129      1.0  0.7354289456450557  0.20461236506378805  0.22581241130063517  1.0000
  S   S130      1.0  0.7354289456450557  0.20461236506378805  0.1397710402985179  1.0000
  S   S131      1.0  0.10652695917921852  0.2070657507360157  0.22581241130063517  1.0000
  S   S132      1.0  0.10652695917921852  0.2070657507360157  0.1397710402985179  1.0000
  S   S133      1.0  0.3691879502292076  0.2101733725875041  0.22581241130063517  1.0000
  S   S134      1.0  0.3691879502292076  0.2101733725875041  0.1397710402985179  1.0000
  S   S135      1.0  0.6306483300589392  0.2153254824991822  0.22581241130063517  1.0000
  S   S136      1.0  0.6306483300589392  0.2153254824991822  0.1397710402985179  1.0000
  S   S137      1.0  0.004684902523802327  0.2171057597946705  0.22581241130063517  1.0000
  S   S138      1.0  0.004684902523802327  0.2171057597946705  0.1397710402985179  1.0000
  S   S139      1.0  0.2638506876227898  0.2200196270853778  0.22581241130063517  1.0000
  S   S140      1.0  0.2638506876227898  0.2200196270853778  0.1397710402985179  1.0000
  S   S141      1.0  0.8923815760750927  0.2208047105004907  0.22581241130063517  1.0000
  S   S142      1.0  0.8923815760750927  0.2208047105004907  0.1397710402985179  1.0000
  S   S143      1.0  0.5284872298624754  0.22515070797700829  0.22581241130063517  1.0000
  S   S144      1.0  0.5284872298624754  0.22515070797700829  0.1397710402985179  1.0000
  S   S145      1.0  0.7881609293585035  0.23159960745829247  0.22581241130063517  1.0000
  S   S146      1.0  0.7881609293585035  0.23159960745829247  0.1397710402985179  1.0000
  S   S147      1.0  0.16110019646365423  0.2335623159960746  0.22581241130063517  1.0000
  S   S148      1.0  0.16110019646365423  0.2335623159960746  0.1397710402985179  1.0000
  S   S149      1.0  0.4222182532595106  0.23730930502274958  0.22581241130063517  1.0000
  S   S150      1.0  0.4222182532595106  0.23730930502274958  0.1397710402985179  1.0000
  S   S151      1.0  0.05697445972495088  0.24533856722276742  0.22581241130063517  1.0000
  S   S152      1.0  0.05697445972495088  0.24533856722276742  0.1397710402985179  1.0000
  S   S153      1.0  0.6836935166994106  0.2433758586849853  0.22581241130063517  1.0000
  S   S154      1.0  0.6836935166994106  0.2433758586849853  0.1397710402985179  1.0000
  S   S155      1.0  0.3198940804646793  0.24730127576054958  0.22581241130063517  1.0000
  S   S156      1.0  0.3198940804646793  0.24730127576054958  0.1397710402985179  1.0000
  S   S157      1.0  0.9471334166815503  0.24747970380943887  0.22581241130063517  1.0000
  S   S158      1.0  0.9471334166815503  0.24747970380943887  0.1397710402985179  1.0000
  S   S159      1.0  0.5825147347740668  0.2516472732370672  0.22581241130063517  1.0000
  S   S160      1.0  0.5825147347740668  0.2516472732370672  0.1397710402985179  1.0000
  S   S161      1.0  0.2135840583777715  0.2561334641805692  0.22581241130063517  1.0000
  S   S162      1.0  0.2135840583777715  0.2561334641805692  0.1397710402985179  1.0000
  S   S163      1.0  0.8438113948919449  0.25711481844946027  0.22581241130063517  1.0000
  S   S164      1.0  0.8438113948919449  0.25711481844946027  0.1397710402985179  1.0000
  S   S165      1.0  0.4774066797642436  0.261381576140291  0.22581241130063517  1.0000
  S   S166      1.0  0.4774066797642436  0.261381576140291  0.1397710402985179  1.0000
  S   S167      1.0  0.741130243846065  0.26646654736477515  0.22581241130063517  1.0000
  S   S168      1.0  0.741130243846065  0.26646654736477515  0.1397710402985179  1.0000
  S   S169      1.0  0.1121480026195154  0.2690546287209683  0.22581241130063517  1.0000
  S   S170      1.0  0.1121480026195154  0.2690546287209683  0.1397710402985179  1.0000
  S   S171      1.0  0.37642436149312375  0.2716388616290481  0.22581241130063517  1.0000
  S   S172      1.0  0.37642436149312375  0.2716388616290481  0.1397710402985179  1.0000
  S   S173      1.0  0.009823182711198428  0.27731436048413477  0.22581241130063517  1.0000
  S   S174      1.0  0.009823182711198428  0.27731436048413477  0.1397710402985179  1.0000
  S   S175      1.0  0.6360680170720141  0.2770803018510372  0.22581241130063517  1.0000
  S   S176      1.0  0.6360680170720141  0.2770803018510372  0.1397710402985179  1.0000
  S   S177      1.0  0.2693863399976887  0.28343820354442073  0.22581241130063517  1.0000
  S   S178      1.0  0.2693863399976887  0.28343820354442073  0.1397710402985179  1.0000
  S   S179      1.0  0.8978388998035364  0.2849340785936767  0.22581241130063517  1.0000
  S   S180      1.0  0.8978388998035364  0.2849340785936767  0.1397710402985179  1.0000
  S   S181      1.0  0.5320890635232481  0.2863373677897721  0.22581241130063517  1.0000
  S   S182      1.0  0.5320890635232481  0.2863373677897721  0.1397710402985179  1.0000
  S   S183      1.0  0.16601178781925344  0.2928797295823793  0.22581241130063517  1.0000
  S   S184      1.0  0.16601178781925344  0.2928797295823793  0.1397710402985179  1.0000
  S   S185      1.0  0.7938917663868548  0.2926220001784281  0.22581241130063517  1.0000
  S   S186      1.0  0.7938917663868548  0.2926220001784281  0.1397710402985179  1.0000
  S   S187      1.0  0.4302554027504912  0.29671032982036954  0.22581241130063517  1.0000
  S   S188      1.0  0.4302554027504912  0.29671032982036954  0.1397710402985179  1.0000
  S   S189      1.0  0.6925343811394892  0.3007305637335078  0.22581241130063517  1.0000
  S   S190      1.0  0.6925343811394892  0.3007305637335078  0.1397710402985179  1.0000
  S   S191      1.0  0.06286836935166994  0.30225711481844947  0.22581241130063517  1.0000
  S   S192      1.0  0.06286836935166994  0.30225711481844947  0.1397710402985179  1.0000
  S   S193      1.0  0.32547478716437456  0.3067059208374223  0.22581241130063517  1.0000
  S   S194      1.0  0.32547478716437456  0.3067059208374223  0.1397710402985179  1.0000
  S   S195      1.0  0.9528487229862475  0.3081452404317959  0.22581241130063517  1.0000
  S   S196      1.0  0.9528487229862475  0.3081452404317959  0.1397710402985179  1.0000
  S   S197      1.0  0.5890492867515161  0.3120706575073602  0.22581241130063517  1.0000
  S   S198      1.0  0.5890492867515161  0.3120706575073602  0.1397710402985179  1.0000
  S   S199      1.0  0.848412780477717  0.31630597593099535  0.22581241130063517  1.0000
  S   S200      1.0  0.848412780477717  0.31630597593099535  0.1397710402985179  1.0000
  S   S201      1.0  0.22265880812049768  0.316432232035765  0.22581241130063517  1.0000
  S   S202      1.0  0.22265880812049768  0.316432232035765  0.1397710402985179  1.0000
  S   S203      1.0  0.4846103470857891  0.32286555446516196  0.22581241130063517  1.0000
  S   S204      1.0  0.4846103470857891  0.32286555446516196  0.1397710402985179  1.0000
  S   S205      1.0  0.11753651661399164  0.3277723258096173  0.22581241130063517  1.0000
  S   S206      1.0  0.11753651661399164  0.3277723258096173  0.1397710402985179  1.0000
  S   S207      1.0  0.7444186461868192  0.3279507538585066  0.22581241130063517  1.0000
  S   S208      1.0  0.7444186461868192  0.3279507538585066  0.1397710402985179  1.0000
  S   S209      1.0  0.3788726008765302  0.33064089982637584  0.22581241130063517  1.0000
  S   S210      1.0  0.3788726008765302  0.33064089982637584  0.1397710402985179  1.0000
  S   S211      1.0  0.6444007858546169  0.3356231599607459  0.22581241130063517  1.0000
  S   S212      1.0  0.6444007858546169  0.3356231599607459  0.1397710402985179  1.0000
  S   S213      1.0  0.014538310412573675  0.3383709519136409  0.22581241130063517  1.0000
  S   S214      1.0  0.014538310412573675  0.3383709519136409  0.1397710402985179  1.0000
  S   S215      1.0  0.27644073346430914  0.3434739941118744  0.22581241130063517  1.0000
  S   S216      1.0  0.27644073346430914  0.3434739941118744  0.1397710402985179  1.0000
  S   S217      1.0  0.9027504911591355  0.3444553483807655  0.22581241130063517  1.0000
  S   S218      1.0  0.9027504911591355  0.3444553483807655  0.1397710402985179  1.0000
  S   S219      1.0  0.5406167250363031  0.3454367026496566  0.22581241130063517  1.0000
  S   S220      1.0  0.5406167250363031  0.3454367026496566  0.1397710402985179  1.0000
  S   S221      1.0  0.171469111547697  0.3535056155272054  0.22581241130063517  1.0000
  S   S222      1.0  0.171469111547697  0.3535056155272054  0.1397710402985179  1.0000
  S   S223      1.0  0.4349705304518664  0.3590971540726203  0.22581241130063517  1.0000
  S   S224      1.0  0.4349705304518664  0.3590971540726203  0.1397710402985179  1.0000
  S   S225      1.0  0.6994106090373281  0.36171082760876677  0.22581241130063517  1.0000
  S   S226      1.0  0.6994106090373281  0.36171082760876677  0.1397710402985179  1.0000
  S   S227      1.0  0.06936678252984736  0.3630255906997811  0.22581241130063517  1.0000
  S   S228      1.0  0.06936678252984736  0.3630255906997811  0.1397710402985179  1.0000
  S   S229      1.0  0.9601027656037479  0.3684607835736393  0.22581241130063517  1.0000
  S   S230      1.0  0.9601027656037479  0.3684607835736393  0.1397710402985179  1.0000
  S   S231      1.0  0.3330058939096267  0.36800785083415116  0.22581241130063517  1.0000
  S   S232      1.0  0.3330058939096267  0.36800785083415116  0.1397710402985179  1.0000
  S   S233      1.0  0.5952848722986247  0.37129325425609083  0.22581241130063517  1.0000
  S   S234      1.0  0.5952848722986247  0.37129325425609083  0.1397710402985179  1.0000
  S   S235      1.0  0.2269155206286837  0.3778213935230619  0.22581241130063517  1.0000
  S   S236      1.0  0.2269155206286837  0.3778213935230619  0.1397710402985179  1.0000
  S   S237      1.0  0.8546168958742633  0.37684003925417076  0.22581241130063517  1.0000
  S   S238      1.0  0.8546168958742633  0.37684003925417076  0.1397710402985179  1.0000
  S   S239      1.0  0.49214145383104124  0.38174681059862614  0.22581241130063517  1.0000
  S   S240      1.0  0.49214145383104124  0.38174681059862614  0.1397710402985179  1.0000
  S   S241      1.0  0.12360838244924688  0.38845273143604847  0.22581241130063517  1.0000
  S   S242      1.0  0.12360838244924688  0.38845273143604847  0.1397710402985179  1.0000
  S   S243      1.0  0.7534381139489194  0.38763493621197254  0.22581241130063517  1.0000
  S   S244      1.0  0.7534381139489194  0.38763493621197254  0.1397710402985179  1.0000
  S   S245      1.0  0.3880157170923379  0.393523061825319  0.22581241130063517  1.0000
  S   S246      1.0  0.3880157170923379  0.393523061825319  0.1397710402985179  1.0000
  S   S247      1.0  0.6497489631084916  0.39821175444335405  0.22581241130063517  1.0000
  S   S248      1.0  0.6497489631084916  0.39821175444335405  0.1397710402985179  1.0000
  S   S249      1.0  0.019646365422396856  0.39941118743866544  0.22581241130063517  1.0000
  S   S250      1.0  0.019646365422396856  0.39941118743866544  0.1397710402985179  1.0000
  S   S251      1.0  0.2827439423706614  0.40448151782793595  0.22581241130063517  1.0000
  S   S252      1.0  0.2827439423706614  0.40448151782793595  0.1397710402985179  1.0000
  S   S253      1.0  0.5469819117945938  0.40770193902067614  0.22581241130063517  1.0000
  S   S254      1.0  0.5469819117945938  0.40770193902067614  0.1397710402985179  1.0000
  S   S255      1.0  0.9113948919449901  0.406378802747792  0.22581241130063517  1.0000
  S   S256      1.0  0.9113948919449901  0.406378802747792  0.1397710402985179  1.0000
  S   S257      1.0  0.1778573905004045  0.41147607227385563  0.22581241130063517  1.0000
  S   S258      1.0  0.1778573905004045  0.41147607227385563  0.1397710402985179  1.0000
  S   S259      1.0  0.8092516520807288  0.41199036488536  0.22581241130063517  1.0000
  S   S260      1.0  0.8092516520807288  0.41199036488536  0.1397710402985179  1.0000
  S   S261      1.0  0.4430255402750491  0.4170755642787046  0.22581241130063517  1.0000
  S   S262      1.0  0.4430255402750491  0.4170755642787046  0.1397710402985179  1.0000
  S   S263      1.0  0.7055851810272243  0.42431889340623397  0.22581241130063517  1.0000
  S   S264      1.0  0.7055851810272243  0.42431889340623397  0.1397710402985179  1.0000
  S   S265      1.0  0.07465618860510806  0.4255664120834578  0.22581241130063517  1.0000
  S   S266      1.0  0.07465618860510806  0.4255664120834578  0.1397710402985179  1.0000
  S   S267      1.0  0.33857236411263913  0.42759007430253754  0.22581241130063517  1.0000
  S   S268      1.0  0.33857236411263913  0.42759007430253754  0.1397710402985179  1.0000
  S   S269      1.0  0.6011787819253439  0.4308145240431796  0.22581241130063517  1.0000
  S   S270      1.0  0.6011787819253439  0.4308145240431796  0.1397710402985179  1.0000
  S   S271      1.0  0.9648151455617074  0.4300115978231779  0.22581241130063517  1.0000
  S   S272      1.0  0.9648151455617074  0.4300115978231779  0.1397710402985179  1.0000
  S   S273      1.0  0.23280943025540274  0.43964671246319925  0.22581241130063517  1.0000
  S   S274      1.0  0.23280943025540274  0.43964671246319925  0.1397710402985179  1.0000
  S   S275      1.0  0.4966394374935374  0.4423325241464801  0.22581241130063517  1.0000
  S   S276      1.0  0.4966394374935374  0.4423325241464801  0.1397710402985179  1.0000
  S   S277      1.0  0.12959324747144  0.44793370406716826  0.22581241130063517  1.0000
  S   S278      1.0  0.12959324747144  0.44793370406716826  0.1397710402985179  1.0000
  S   S279      1.0  0.7610627748152307  0.44946025515210997  0.22581241130063517  1.0000
  S   S280      1.0  0.7610627748152307  0.44946025515210997  0.1397710402985179  1.0000
  S   S281      1.0  0.3948919449901768  0.45338567222767423  0.22581241130063517  1.0000
  S   S282      1.0  0.3948919449901768  0.45338567222767423  0.1397710402985179  1.0000
  S   S283      1.0  0.025540275049115914  0.45689788750581073  0.22581241130063517  1.0000
  S   S284      1.0  0.025540275049115914  0.45689788750581073  0.1397710402985179  1.0000
  S   S285      1.0  0.6573260262640884  0.4571044884045246  0.22581241130063517  1.0000
  S   S286      1.0  0.6573260262640884  0.4571044884045246  0.1397710402985179  1.0000
  S   S287      1.0  0.28908223407241085  0.4616103556240947  0.22581241130063517  1.0000
  S   S288      1.0  0.28908223407241085  0.4616103556240947  0.1397710402985179  1.0000
  S   S289      1.0  0.9170923379174852  0.465161923454367  0.22581241130063517  1.0000
  S   S290      1.0  0.9170923379174852  0.465161923454367  0.1397710402985179  1.0000
  S   S291      1.0  0.5540275049115914  0.46908734052993134  0.22581241130063517  1.0000
  S   S292      1.0  0.5540275049115914  0.46908734052993134  0.1397710402985179  1.0000
  S   S293      1.0  0.18432500701655907  0.4738539184074022  0.22581241130063517  1.0000
  S   S294      1.0  0.18432500701655907  0.4738539184074022  0.1397710402985179  1.0000
  S   S295      1.0  0.8161100196463654  0.4722276741903828  0.22581241130063517  1.0000
  S   S296      1.0  0.8161100196463654  0.4722276741903828  0.1397710402985179  1.0000
  S   S297      1.0  0.4475954557102588  0.4752314716047276  0.22581241130063517  1.0000
  S   S298      1.0  0.4475954557102588  0.4752314716047276  0.1397710402985179  1.0000
  S   S299      1.0  0.08047151277013752  0.48361138370951917  0.22581241130063517  1.0000
  S   S300      1.0  0.08047151277013752  0.48361138370951917  0.1397710402985179  1.0000
  S   S301      1.0  0.7111984282907663  0.4828263002944063  0.22581241130063517  1.0000
  S   S302      1.0  0.7111984282907663  0.4828263002944063  0.1397710402985179  1.0000
  S   S303      1.0  0.3416681550276835  0.4865732893210813  0.22581241130063517  1.0000
  S   S304      1.0  0.3416681550276835  0.4865732893210813  0.1397710402985179  1.0000
  S   S305      1.0  0.6090373280943026  0.49263984298331703  0.22581241130063517  1.0000
  S   S306      1.0  0.6090373280943026  0.49263984298331703  0.1397710402985179  1.0000
  S   S307      1.0  0.8700884086444007  0.49787373241740274  0.22581241130063517  1.0000
  S   S308      1.0  0.8700884086444007  0.49787373241740274  0.1397710402985179  1.0000
  S   S309      1.0  0.23934398223285214  0.49852796859666343  0.22581241130063517  1.0000
  S   S310      1.0  0.23934398223285214  0.49852796859666343  0.1397710402985179  1.0000
  S   S311      1.0  0.5030323737934569  0.5032214020565772  0.22581241130063517  1.0000
  S   S312      1.0  0.5030323737934569  0.5032214020565772  0.1397710402985179  1.0000
  S   S313      1.0  0.1364471766271627  0.5091645826078699  0.22581241130063517  1.0000
  S   S314      1.0  0.1364471766271627  0.5091645826078699  0.1397710402985179  1.0000
  S   S315      1.0  0.7674361493123771  0.5078508341511286  0.22581241130063517  1.0000
  S   S316      1.0  0.7674361493123771  0.5078508341511286  0.1397710402985179  1.0000
  S   S317      1.0  0.40070043563679847  0.513461620514571  0.22581241130063517  1.0000
  S   S318      1.0  0.40070043563679847  0.513461620514571  0.1397710402985179  1.0000
  S   S319      1.0  0.0310833567218636  0.5189261180428992  0.22581241130063517  1.0000
  S   S320      1.0  0.0310833567218636  0.5189261180428992  0.1397710402985179  1.0000
  S   S321      1.0  0.6620825147347741  0.5184963945897513  0.22581241130063517  1.0000
  S   S322      1.0  0.6620825147347741  0.5184963945897513  0.1397710402985179  1.0000
  S   S323      1.0  0.29273084479371314  0.5201177625122669  0.22581241130063517  1.0000
  S   S324      1.0  0.29273084479371314  0.5201177625122669  0.1397710402985179  1.0000
  S   S325      1.0  0.9232005715306306  0.523864751538942  0.22581241130063517  1.0000
  S   S326      1.0  0.9232005715306306  0.523864751538942  0.1397710402985179  1.0000
  S   S327      1.0  0.5589390962671906  0.5289499509322866  0.22581241130063517  1.0000
  S   S328      1.0  0.5589390962671906  0.5289499509322866  0.1397710402985179  1.0000
  S   S329      1.0  0.8220039292730844  0.531108930323847  0.22581241130063517  1.0000
  S   S330      1.0  0.8220039292730844  0.531108930323847  0.1397710402985179  1.0000
  S   S331      1.0  0.18835952848722984  0.5321393523061826  0.22581241130063517  1.0000
  S   S332      1.0  0.18835952848722984  0.5321393523061826  0.1397710402985179  1.0000
  S   S333      1.0  0.45605762933857236  0.5386980700032712  0.22581241130063517  1.0000
  S   S334      1.0  0.45605762933857236  0.5386980700032712  0.1397710402985179  1.0000
  S   S335      1.0  0.08447937131630648  0.5430978083087995  0.22581241130063517  1.0000
  S   S336      1.0  0.08447937131630648  0.5430978083087995  0.1397710402985179  1.0000
  S   S337      1.0  0.7190569744597249  0.542048897043137  0.22581241130063517  1.0000
  S   S338      1.0  0.7190569744597249  0.542048897043137  0.1397710402985179  1.0000
  S   S339      1.0  0.3501189122117671  0.5495583905789991  0.22581241130063517  1.0000
  S   S340      1.0  0.3501189122117671  0.5495583905789991  0.1397710402985179  1.0000
  S   S341      1.0  0.9799170486793277  0.548577036310108  0.22581241130063517  1.0000
  S   S342      1.0  0.9799170486793277  0.548577036310108  0.1397710402985179  1.0000
  S   S343      1.0  0.24578637162651226  0.5582356283249833  0.22581241130063517  1.0000
  S   S344      1.0  0.24578637162651226  0.5582356283249833  0.1397710402985179  1.0000
  S   S345      1.0  0.8770551132251061  0.5595785341666237  0.22581241130063517  1.0000
  S   S346      1.0  0.8770551132251061  0.5595785341666237  0.1397710402985179  1.0000
  S   S347      1.0  0.5106268976602966  0.5654384869301454  0.22581241130063517  1.0000
  S   S348      1.0  0.5106268976602966  0.5654384869301454  0.1397710402985179  1.0000
  S   S349      1.0  0.13892786977266347  0.5662414131501472  0.22581241130063517  1.0000
  S   S350      1.0  0.13892786977266347  0.5662414131501472  0.1397710402985179  1.0000
  S   S351      1.0  0.7730844793713163  0.5687493185039799  0.22581241130063517  1.0000
  S   S352      1.0  0.7730844793713163  0.5687493185039799  0.1397710402985179  1.0000
  S   S353      1.0  0.40839882121807464  0.5733562315996075  0.22581241130063517  1.0000
  S   S354      1.0  0.40839882121807464  0.5733562315996075  0.1397710402985179  1.0000
  S   S355      1.0  0.03608382449246889  0.5782793588485443  0.22581241130063517  1.0000
  S   S356      1.0  0.03608382449246889  0.5782793588485443  0.1397710402985179  1.0000
  S   S357      1.0  0.6711912841578853  0.5783745204746187  0.22581241130063517  1.0000
  S   S358      1.0  0.6711912841578853  0.5783745204746187  0.1397710402985179  1.0000
  S   S359      1.0  0.9303957339320796  0.5821767372307117  0.22581241130063517  1.0000
  S   S360      1.0  0.9303957339320796  0.5821767372307117  0.1397710402985179  1.0000
  S   S361      1.0  0.30058939096267195  0.5844739424616497  0.22581241130063517  1.0000
  S   S362      1.0  0.30058939096267195  0.5844739424616497  0.1397710402985179  1.0000
  S   S363      1.0  0.5648330058939096  0.5882517874667041  0.22581241130063517  1.0000
  S   S364      1.0  0.5648330058939096  0.5882517874667041  0.1397710402985179  1.0000
  S   S365      1.0  0.19646365422396855  0.5940464507687276  0.22581241130063517  1.0000
  S   S366      1.0  0.19646365422396855  0.5940464507687276  0.1397710402985179  1.0000
  S   S367      1.0  0.8293222003929273  0.5945780176643769  0.22581241130063517  1.0000
  S   S368      1.0  0.8293222003929273  0.5945780176643769  0.1397710402985179  1.0000
  S   S369      1.0  0.46247544204322205  0.5978410206084397  0.22581241130063517  1.0000
  S   S370      1.0  0.46247544204322205  0.5978410206084397  0.1397710402985179  1.0000
  S   S371      1.0  0.7249508840864439  0.6035328753680078  0.22581241130063517  1.0000
  S   S372      1.0  0.7249508840864439  0.6035328753680078  0.1397710402985179  1.0000
  S   S373      1.0  0.09112891038234851  0.6033064089982638  0.22581241130063517  1.0000
  S   S374      1.0  0.09112891038234851  0.6033064089982638  0.1397710402985179  1.0000
  S   S375      1.0  0.9852652259332023  0.6080034892596228  0.22581241130063517  1.0000
  S   S376      1.0  0.9852652259332023  0.6080034892596228  0.1397710402985179  1.0000
  S   S377      1.0  0.6218074656188606  0.6113837095191366  0.22581241130063517  1.0000
  S   S378      1.0  0.6218074656188606  0.6113837095191366  0.1397710402985179  1.0000
  S   S379      1.0  0.8835952848722985  0.6187438665358195  0.22581241130063517  1.0000
  S   S380      1.0  0.8835952848722985  0.6187438665358195  0.1397710402985179  1.0000
  S   S381      1.0  0.5166994106090373  0.6251226692836114  0.22581241130063517  1.0000
  S   S382      1.0  0.5166994106090373  0.6251226692836114  0.1397710402985179  1.0000
  S   S383      1.0  0.779305828421742  0.6280667320902846  0.22581241130063517  1.0000
  S   S384      1.0  0.779305828421742  0.6280667320902846  0.1397710402985179  1.0000
  S   S385      1.0  0.14556170744775854  0.630207868676956  0.22581241130063517  1.0000
  S   S386      1.0  0.14556170744775854  0.630207868676956  0.1397710402985179  1.0000
  S   S387      1.0  0.41091924309792166  0.6356076648933423  0.22581241130063517  1.0000
  S   S388      1.0  0.41091924309792166  0.6356076648933423  0.1397710402985179  1.0000
  S   S389      1.0  0.6760135738524736  0.6396645552680883  0.22581241130063517  1.0000
  S   S390      1.0  0.6760135738524736  0.6396645552680883  0.1397710402985179  1.0000
  S   S391      1.0  0.04361493123772102  0.6408243375858687  0.22581241130063517  1.0000
  S   S392      1.0  0.04361493123772102  0.6408243375858687  0.1397710402985179  1.0000
  S   S393      1.0  0.9393274009014215  0.6429602262887492  0.22581241130063517  1.0000
  S   S394      1.0  0.9393274009014215  0.6429602262887492  0.1397710402985179  1.0000
  S   S395      1.0  0.3080343294385276  0.6464542120758225  0.22581241130063517  1.0000
  S   S396      1.0  0.3080343294385276  0.6464542120758225  0.1397710402985179  1.0000
  S   S397      1.0  0.5717092337917485  0.6480863591756624  0.22581241130063517  1.0000
  S   S398      1.0  0.5717092337917485  0.6480863591756624  0.1397710402985179  1.0000
  S   S399      1.0  0.8332865562728039  0.6532080938361606  0.22581241130063517  1.0000
  S   S400      1.0  0.8332865562728039  0.6532080938361606  0.1397710402985179  1.0000
  S   S401      1.0  0.4675834970530452  0.6584887144259078  0.22581241130063517  1.0000
  S   S402      1.0  0.4675834970530452  0.6584887144259078  0.1397710402985179  1.0000
  S   S403      1.0  0.20039292730844796  0.6555446516192346  0.22581241130063517  1.0000
  S   S404      1.0  0.20039292730844796  0.6555446516192346  0.1397710402985179  1.0000
  S   S405      1.0  0.731827111984283  0.662414131501472  0.22581241130063517  1.0000
  S   S406      1.0  0.731827111984283  0.662414131501472  0.1397710402985179  1.0000
  S   S407      1.0  0.3628964355879877  0.6702649656526007  0.22581241130063517  1.0000
  S   S408      1.0  0.3628964355879877  0.6702649656526007  0.1397710402985179  1.0000
  S   S409      1.0  0.6263773810540703  0.675171736997056  0.22581241130063517  1.0000
  S   S410      1.0  0.6263773810540703  0.675171736997056  0.1397710402985179  1.0000
  S   S411      1.0  0.8898017503125558  0.678918726023731  0.22581241130063517  1.0000
  S   S412      1.0  0.8898017503125558  0.678918726023731  0.1397710402985179  1.0000
  S   S413      1.0  0.5225933202357563  0.6830225711481845  0.22581241130063517  1.0000
  S   S414      1.0  0.5225933202357563  0.6830225711481845  0.1397710402985179  1.0000
  S   S415      1.0  0.7856974459724951  0.6904808635917566  0.22581241130063517  1.0000
  S   S416      1.0  0.7856974459724951  0.6904808635917566  0.1397710402985179  1.0000
  S   S417      1.0  0.41846758349705304  0.6942263657180242  0.22581241130063517  1.0000
  S   S418      1.0  0.41846758349705304  0.6942263657180242  0.1397710402985179  1.0000
  S   S419      1.0  0.15127701375245578  0.6928361138370952  0.22581241130063517  1.0000
  S   S420      1.0  0.15127701375245578  0.6928361138370952  0.1397710402985179  1.0000
  S   S421      1.0  0.6823182711198429  0.6985279685966634  0.22581241130063517  1.0000
  S   S422      1.0  0.6823182711198429  0.6985279685966634  0.1397710402985179  1.0000
  S   S423      1.0  0.9459724950884086  0.7016683022571149  0.22581241130063517  1.0000
  S   S424      1.0  0.9459724950884086  0.7016683022571149  0.1397710402985179  1.0000
  S   S425      1.0  0.3153241650294696  0.7065750736015702  0.22581241130063517  1.0000
  S   S426      1.0  0.3153241650294696  0.7065750736015702  0.1397710402985179  1.0000
  S   S427      1.0  0.5785854616895875  0.7070112310544108  0.22581241130063517  1.0000
  S   S428      1.0  0.5785854616895875  0.7070112310544108  0.1397710402985179  1.0000
  S   S429      1.0  0.8391453831041257  0.7133627739614001  0.22581241130063517  1.0000
  S   S430      1.0  0.8391453831041257  0.7133627739614001  0.1397710402985179  1.0000
  S   S431      1.0  0.47347740667976423  0.7186926654435295  0.22581241130063517  1.0000
  S   S432      1.0  0.47347740667976423  0.7186926654435295  0.1397710402985179  1.0000
  S   S433      1.0  0.7357563850687623  0.7232580961727184  0.22581241130063517  1.0000
  S   S434      1.0  0.7357563850687623  0.7232580961727184  0.1397710402985179  1.0000
  S   S435      1.0  0.37131630648330055  0.7304689166702224  0.22581241130063517  1.0000
  S   S436      1.0  0.37131630648330055  0.7304689166702224  0.1397710402985179  1.0000
  S   S437      1.0  0.634919279063808  0.7340529931305202  0.22581241130063517  1.0000
  S   S438      1.0  0.634919279063808  0.7340529931305202  0.1397710402985179  1.0000
  S   S439      1.0  0.8956559703121589  0.738523607022135  0.22581241130063517  1.0000
  S   S440      1.0  0.8956559703121589  0.738523607022135  0.1397710402985179  1.0000
  S   S441      1.0  0.2654442261514953  0.7420128666448589  0.22581241130063517  1.0000
  S   S442      1.0  0.2654442261514953  0.7420128666448589  0.1397710402985179  1.0000
  S   S443      1.0  0.529796987557302  0.7425580634609094  0.22581241130063517  1.0000
  S   S444      1.0  0.529796987557302  0.7425580634609094  0.1397710402985179  1.0000
  S   S445      1.0  0.7917485265225934  0.7497546614327774  0.22581241130063517  1.0000
  S   S446      1.0  0.7917485265225934  0.7497546614327774  0.1397710402985179  1.0000
  S   S447      1.0  0.15957214581969004  0.7507360157016685  0.22581241130063517  1.0000
  S   S448      1.0  0.15957214581969004  0.7507360157016685  0.1397710402985179  1.0000
  S   S449      1.0  0.42598445374562227  0.7556427870461238  0.22581241130063517  1.0000
  S   S450      1.0  0.42598445374562227  0.7556427870461238  0.1397710402985179  1.0000
  S   S451      1.0  0.6876983527278222  0.7589642938023703  0.22581241130063517  1.0000
  S   S452      1.0  0.6876983527278222  0.7589642938023703  0.1397710402985179  1.0000
  S   S453      1.0  0.9489194499017682  0.7638349618125186  0.22581241130063517  1.0000
  S   S454      1.0  0.9489194499017682  0.7638349618125186  0.1397710402985179  1.0000
  S   S455      1.0  0.054616895874263265  0.7627085377821394  0.22581241130063517  1.0000
  S   S456      1.0  0.054616895874263265  0.7627085377821394  0.1397710402985179  1.0000
  S   S457      1.0  0.32057743230545827  0.7654563297350344  0.22581241130063517  1.0000
  S   S458      1.0  0.32057743230545827  0.7654563297350344  0.1397710402985179  1.0000
  S   S459      1.0  0.586262097067598  0.7692363609929851  0.22581241130063517  1.0000
  S   S460      1.0  0.586262097067598  0.7692363609929851  0.1397710402985179  1.0000
  S   S461      1.0  0.8468565815324166  0.7750736015701668  0.22581241130063517  1.0000
  S   S462      1.0  0.8468565815324166  0.7750736015701668  0.1397710402985179  1.0000
  S   S463      1.0  0.47857090882631154  0.7793406753171229  0.22581241130063517  1.0000
  S   S464      1.0  0.47857090882631154  0.7793406753171229  0.1397710402985179  1.0000
  S   S465      1.0  0.743860510805501  0.7845927379784102  0.22581241130063517  1.0000
  S   S466      1.0  0.743860510805501  0.7845927379784102  0.1397710402985179  1.0000
  S   S467      1.0  0.37426326129666015  0.7891723912332351  0.22581241130063517  1.0000
  S   S468      1.0  0.37426326129666015  0.7891723912332351  0.1397710402985179  1.0000
  S   S469      1.0  0.1094583216390682  0.7890088321884201  0.22581241130063517  1.0000
  S   S470      1.0  0.1094583216390682  0.7890088321884201  0.1397710402985179  1.0000
  S   S471      1.0  0.6405470757140698  0.7955008681210841  0.22581241130063517  1.0000
  S   S472      1.0  0.6405470757140698  0.7955008681210841  0.1397710402985179  1.0000
  S   S473      1.0  1.0006548788474132  0.7922800130847237  0.22581241130063517  1.0000
  S   S474      1.0  1.0006548788474132  0.7922800130847237  0.1397710402985179  1.0000
  S   S475      1.0  0.8998821218074656  0.7996074582924435  0.22581241130063517  1.0000
  S   S476      1.0  0.8998821218074656  0.7996074582924435  0.1397710402985179  1.0000
  S   S477      1.0  0.011132940406024886  0.7975139025188094  0.22581241130063517  1.0000
  S   S478      1.0  0.011132940406024886  0.7975139025188094  0.1397710402985179  1.0000
  S   S479      1.0  0.5353634577603144  0.8033085658208328  0.22581241130063517  1.0000
  S   S480      1.0  0.5353634577603144  0.8033085658208328  0.1397710402985179  1.0000
  S   S481      1.0  0.7986247544204322  0.809072075019082  0.22581241130063517  1.0000
  S   S482      1.0  0.7986247544204322  0.809072075019082  0.1397710402985179  1.0000
  S   S483      1.0  0.43040093138324964  0.8137244211827137  0.22581241130063517  1.0000
  S   S484      1.0  0.43040093138324964  0.8137244211827137  0.1397710402985179  1.0000
  S   S485      1.0  0.1669941060903733  0.8120005607738681  0.22581241130063517  1.0000
  S   S486      1.0  0.1669941060903733  0.8120005607738681  0.1397710402985179  1.0000
  S   S487      1.0  0.6970717560108523  0.8187298471891211  0.22581241130063517  1.0000
  S   S488      1.0  0.6970717560108523  0.8187298471891211  0.1397710402985179  1.0000
  S   S489      1.0  0.06069692896287871  0.8215484737358608  0.22581241130063517  1.0000
  S   S490      1.0  0.06069692896287871  0.8215484737358608  0.1397710402985179  1.0000
  S   S491      1.0  0.9542239685658154  0.8241413150147203  0.22581241130063517  1.0000
  S   S492      1.0  0.9542239685658154  0.8241413150147203  0.1397710402985179  1.0000
  S   S493      1.0  0.3248199083169614  0.8260822156798605  0.22581241130063517  1.0000
  S   S494      1.0  0.3248199083169614  0.8260822156798605  0.1397710402985179  1.0000
  S   S495      1.0  0.5911769958921237  0.8304041395307342  0.22581241130063517  1.0000
  S   S496      1.0  0.5911769958921237  0.8304041395307342  0.1397710402985179  1.0000
  S   S497      1.0  0.8500327439423707  0.8326790971540726  0.22581241130063517  1.0000
  S   S498      1.0  0.8500327439423707  0.8326790971540726  0.1397710402985179  1.0000
  S   S499      1.0  0.4862475442043222  0.838512703085814  0.22581241130063517  1.0000
  S   S500      1.0  0.4862475442043222  0.838512703085814  0.1397710402985179  1.0000
  S   S501      1.0  0.7495088408644401  0.84396467124632  0.22581241130063517  1.0000
  S   S502      1.0  0.7495088408644401  0.84396467124632  0.1397710402985179  1.0000
  S   S503      1.0  0.11612035983869301  0.8470636847270285  0.22581241130063517  1.0000
  S   S504      1.0  0.11612035983869301  0.8470636847270285  0.1397710402985179  1.0000
  S   S505      1.0  0.3804027504911592  0.850343473994112  0.22581241130063517  1.0000
  S   S506      1.0  0.3804027504911592  0.850343473994112  0.1397710402985179  1.0000
  S   S507      1.0  0.6477406679764243  0.8543670264965654  0.22581241130063517  1.0000
  S   S508      1.0  0.6477406679764243  0.8543670264965654  0.1397710402985179  1.0000
  S   S509      1.0  0.9073814201515576  0.8592924903032853  0.22581241130063517  1.0000
  S   S510      1.0  0.9073814201515576  0.8592924903032853  0.1397710402985179  1.0000
  S   S511      1.0  0.27770715358835085  0.8645731108930325  0.22581241130063517  1.0000
  S   S512      1.0  0.27770715358835085  0.8645731108930325  0.1397710402985179  1.0000
  S   S513      1.0  0.5412573673870333  0.8635917566241413  0.22581241130063517  1.0000
  S   S514      1.0  0.5412573673870333  0.8635917566241413  0.1397710402985179  1.0000
  S   S515      1.0  0.011787819253438114  0.8626104023552503  0.22581241130063517  1.0000
  S   S516      1.0  0.011787819253438114  0.8626104023552503  0.1397710402985179  1.0000
  S   S517      1.0  0.804256712508186  0.868760222440301  0.22581241130063517  1.0000
  S   S518      1.0  0.804256712508186  0.868760222440301  0.1397710402985179  1.0000
  S   S519      1.0  0.2143418467583497  0.8700686947988224  0.22581241130063517  1.0000
  S   S520      1.0  0.2143418467583497  0.8700686947988224  0.1397710402985179  1.0000
  S   S521      1.0  0.4383104125736738  0.8759568204121689  0.22581241130063517  1.0000
  S   S522      1.0  0.4383104125736738  0.8759568204121689  0.1397710402985179  1.0000
  S   S523      1.0  0.7023575638506876  0.8778914902565542  0.22581241130063517  1.0000
  S   S524      1.0  0.7023575638506876  0.8778914902565542  0.1397710402985179  1.0000
  S   S525      1.0  0.06777996070726916  0.8837796158699005  0.22581241130063517  1.0000
  S   S526      1.0  0.06777996070726916  0.8837796158699005  0.1397710402985179  1.0000
  S   S527      1.0  0.9611438550534818  0.8842001962708539  0.22581241130063517  1.0000
  S   S528      1.0  0.9611438550534818  0.8842001962708539  0.1397710402985179  1.0000
  S   S529      1.0  0.3320235756385069  0.8846207766718072  0.22581241130063517  1.0000
  S   S530      1.0  0.3320235756385069  0.8846207766718072  0.1397710402985179  1.0000
  S   S531      1.0  0.5982318271119843  0.8891069676153093  0.22581241130063517  1.0000
  S   S532      1.0  0.5982318271119843  0.8891069676153093  0.1397710402985179  1.0000
  S   S533      1.0  0.8577905395194196  0.8922774967917265  0.22581241130063517  1.0000
  S   S534      1.0  0.8577905395194196  0.8922774967917265  0.1397710402985179  1.0000
  S   S535      1.0  0.22733651417344933  0.8959764474975467  0.22581241130063517  1.0000
  S   S536      1.0  0.22733651417344933  0.8959764474975467  0.1397710402985179  1.0000
  S   S537      1.0  0.4933857236411263  0.8989205103042199  0.22581241130063517  1.0000
  S   S538      1.0  0.4933857236411263  0.8989205103042199  0.1397710402985179  1.0000
  S   S539      1.0  0.7550519225371878  0.9067713444553485  0.22581241130063517  1.0000
  S   S540      1.0  0.7550519225371878  0.9067713444553485  0.1397710402985179  1.0000
  S   S541      1.0  0.1237721021611002  0.9090753936083971  0.22581241130063517  1.0000
  S   S542      1.0  0.1237721021611002  0.9090753936083971  0.1397710402985179  1.0000
  S   S543      1.0  0.38845606666215027  0.9118473148116816  0.22581241130063517  1.0000
  S   S544      1.0  0.38845606666215027  0.9118473148116816  0.1397710402985179  1.0000
  S   S545      1.0  0.6543876882776686  0.9156035328753681  0.22581241130063517  1.0000
  S   S546      1.0  0.6543876882776686  0.9156035328753681  0.1397710402985179  1.0000
  S   S547      1.0  0.9129011132940407  0.9192018318613019  0.22581241130063517  1.0000
  S   S548      1.0  0.9129011132940407  0.9192018318613019  0.1397710402985179  1.0000
  S   S549      1.0  0.28478299696374354  0.9199750200731557  0.22581241130063517  1.0000
  S   S550      1.0  0.28478299696374354  0.9199750200731557  0.1397710402985179  1.0000
  S   S551      1.0  0.548212180746562  0.925613346418057  0.22581241130063517  1.0000
  S   S552      1.0  0.548212180746562  0.925613346418057  0.1397710402985179  1.0000
  S   S553      1.0  0.8110532160246007  0.928361138370952  0.22581241130063517  1.0000
  S   S554      1.0  0.8110532160246007  0.928361138370952  0.1397710402985179  1.0000
  S   S555      1.0  0.1789605286658332  0.9324649834954055  0.22581241130063517  1.0000
  S   S556      1.0  0.1789605286658332  0.9324649834954055  0.1397710402985179  1.0000
  S   S557      1.0  0.4456308191680191  0.9342492639842984  0.22581241130063517  1.0000
  S   S558      1.0  0.4456308191680191  0.9342492639842984  0.1397710402985179  1.0000
  S   S559      1.0  0.07048133595284872  0.9405053974484789  0.22581241130063517  1.0000
  S   S560      1.0  0.07048133595284872  0.9405053974484789  0.1397710402985179  1.0000
  S   S561      1.0  0.7090551884265047  0.9399589615487556  0.22581241130063517  1.0000
  S   S562      1.0  0.7090551884265047  0.9399589615487556  0.1397710402985179  1.0000
  S   S563      1.0  0.9671625035082796  0.943081452404318  0.22581241130063517  1.0000
  S   S564      1.0  0.9671625035082796  0.943081452404318  0.1397710402985179  1.0000
  S   S565      1.0  0.34106090373280945  0.9459470068694799  0.22581241130063517  1.0000
  S   S566      1.0  0.34106090373280945  0.9459470068694799  0.1397710402985179  1.0000
  S   S567      1.0  0.6062597385001016  0.9496802138675511  0.22581241130063517  1.0000
  S   S568      1.0  0.6062597385001016  0.9496802138675511  0.1397710402985179  1.0000
  S   S569      1.0  0.8631770979511647  0.9547876068975186  0.22581241130063517  1.0000
  S   S570      1.0  0.8631770979511647  0.9547876068975186  0.1397710402985179  1.0000
  S   S571      1.0  0.23568362075238303  0.9562752153527425  0.22581241130063517  1.0000
  S   S572      1.0  0.23568362075238303  0.9562752153527425  0.1397710402985179  1.0000
  S   S573      1.0  0.4994312894219832  0.9578017664376841  0.22581241130063517  1.0000
  S   S574      1.0  0.4994312894219832  0.9578017664376841  0.1397710402985179  1.0000
  S   S575      1.0  0.7617878192534382  0.9645485770363103  0.22581241130063517  1.0000
  S   S576      1.0  0.7617878192534382  0.9645485770363103  0.1397710402985179  1.0000
  S   S577      1.0  0.12851997380484612  0.9661432777232581  0.22581241130063517  1.0000
  S   S578      1.0  0.12851997380484612  0.9661432777232581  0.1397710402985179  1.0000
  S   S579      1.0  0.3958742632612967  0.971540726202159  0.22581241130063517  1.0000
  S   S580      1.0  0.3958742632612967  0.971540726202159  0.1397710402985179  1.0000
  S   S581      1.0  0.6613587012718436  0.9739166365373689  0.22581241130063517  1.0000
  S   S582      1.0  0.6613587012718436  0.9739166365373689  0.1397710402985179  1.0000
  S   S583      1.0  0.28917578819346995  0.9777092387494745  0.22581241130063517  1.0000
  S   S584      1.0  0.28917578819346995  0.9777092387494745  0.1397710402985179  1.0000
  S   S585      1.0  0.9179764243614932  0.9789008832188422  0.22581241130063517  1.0000
  S   S586      1.0  0.9179764243614932  0.9789008832188422  0.1397710402985179  1.0000
  S   S587      1.0  0.5554027504911591  0.9846908734052993  0.22581241130063517  1.0000
  S   S588      1.0  0.5554027504911591  0.9846908734052993  0.1397710402985179  1.0000
  S   S589      1.0  0.8158153241650294  0.9846254497873733  0.22581241130063517  1.0000
  S   S590      1.0  0.8158153241650294  0.9846254497873733  0.1397710402985179  1.0000
  S   S591      1.0  0.18467583497053044  0.9911678115799804  0.22581241130063517  1.0000
  S   S592      1.0  0.18467583497053044  0.9911678115799804  0.1397710402985179  1.0000
  S   S593      1.0  0.4495915624030607  0.9934404214658334  0.22581241130063517  1.0000
  S   S594      1.0  0.4495915624030607  0.9934404214658334  0.1397710402985179  1.0000
  S   S595      1.0  0.712180746561886  0.9970559371933269  0.22581241130063517  1.0000
  S   S596      1.0  0.712180746561886  0.9970559371933269  0.1397710402985179  1.0000
  S   S597      1.0  0.3428290766208251  1.0  0.22581241130063517  1.0000
  S   S598      1.0  0.3428290766208251  1.0  0.1397710402985179  1.0000
  S   S599      1.0  0.9698160385783176  1.000802926220002  0.22581241130063517  1.0000
  S   S600      1.0  0.9698160385783176  1.000802926220002  0.1397710402985179  1.0000
  S   S601      1.0  0.17062112739912347  0.0028685740167585113  -0.6881462176972475  1.0000
  S   S602      1.0  0.17062112739912347  0.0028685740167585113  -0.7741875886993648  1.0000
  S   S603      1.0  0.7408465797463832  0.002676420733339281  -0.6881462176972475  1.0000
  S   S604      1.0  0.7408465797463832  0.002676420733339281  -0.7741875886993648  1.0000
  S   S605      1.0  0.2262434081273912  0.007540932803057694  -0.6881462176972475  1.0000
  S   S606      1.0  0.2262434081273912  0.007540932803057694  -0.7741875886993648  1.0000
  S   S607      1.0  0.8019646365422397  0.005888125613346418  -0.6881462176972475  1.0000
  S   S608      1.0  0.8019646365422397  0.005888125613346418  -0.7741875886993648  1.0000
  S   S609      1.0  0.29273084479371314  0.010794896957801768  -0.6881462176972475  1.0000
  S   S610      1.0  0.29273084479371314  0.010794896957801768  -0.7741875886993648  1.0000
  S   S611      1.0  0.8585461689587427  0.010794896957801768  -0.6881462176972475  1.0000
  S   S612      1.0  0.8585461689587427  0.010794896957801768  -0.7741875886993648  1.0000
  S   S613      1.0  0.9204322200392928  0.014299733632412732  -0.6881462176972475  1.0000
  S   S614      1.0  0.9204322200392928  0.014299733632412732  -0.7741875886993648  1.0000
  S   S615      1.0  0.3482318271119843  0.01840039254170756  -0.6881462176972475  1.0000
  S   S616      1.0  0.3482318271119843  0.01840039254170756  -0.7741875886993648  1.0000
  S   S617      1.0  0.4130451866404716  0.025593719332679097  -0.6881462176972475  1.0000
  S   S618      1.0  0.4130451866404716  0.025593719332679097  -0.7741875886993648  1.0000
  S   S619      1.0  0.4695481335952849  0.027477919528949953  -0.6881462176972475  1.0000
  S   S620      1.0  0.4695481335952849  0.027477919528949953  -0.7741875886993648  1.0000
  S   S621      1.0  0.5283235101506222  0.0332024860974812  -0.6881462176972475  1.0000
  S   S622      1.0  0.5283235101506222  0.0332024860974812  -0.7741875886993648  1.0000
  S   S623      1.0  0.5848301992702779  0.040586008691994954  -0.6881462176972475  1.0000
  S   S624      1.0  0.5848301992702779  0.040586008691994954  -0.7741875886993648  1.0000
  S   S625      1.0  0.01925343811394892  0.04105986261040236  -0.6881462176972475  1.0000
  S   S626      1.0  0.01925343811394892  0.04105986261040236  -0.7741875886993648  1.0000
  S   S627      1.0  0.645823453695549  0.04202903455043823  -0.6881462176972475  1.0000
  S   S628      1.0  0.645823453695549  0.04202903455043823  -0.7741875886993648  1.0000
  S   S629      1.0  0.07795397137243897  0.047735875508201325  -0.6881462176972475  1.0000
  S   S630      1.0  0.07795397137243897  0.047735875508201325  -0.7741875886993648  1.0000
  S   S631      1.0  0.7067271865049793  0.04987986870156679  -0.6881462176972475  1.0000
  S   S632      1.0  0.7067271865049793  0.04987986870156679  -0.7741875886993648  1.0000
  S   S633      1.0  0.137524557956778  0.05103042198233563  -0.6881462176972475  1.0000
  S   S634      1.0  0.137524557956778  0.05103042198233563  -0.7741875886993648  1.0000
  S   S635      1.0  0.1958385425968923  0.05468819698456598  -0.6881462176972475  1.0000
  S   S636      1.0  0.1958385425968923  0.05468819698456598  -0.7741875886993648  1.0000
  S   S637      1.0  0.7663719711853307  0.05511939810271508  -0.6881462176972475  1.0000
  S   S638      1.0  0.7663719711853307  0.05511939810271508  -0.7741875886993648  1.0000
  S   S639      1.0  0.2549115913555992  0.061334641805691856  -0.6881462176972475  1.0000
  S   S640      1.0  0.2549115913555992  0.061334641805691856  -0.7741875886993648  1.0000
  S   S641      1.0  0.8265225933202357  0.06104023552502454  -0.6881462176972475  1.0000
  S   S642      1.0  0.8265225933202357  0.06104023552502454  -0.7741875886993648  1.0000
  S   S643      1.0  0.8848868514880303  0.06527823210845783  -0.6881462176972475  1.0000
  S   S644      1.0  0.8848868514880303  0.06527823210845783  -0.7741875886993648  1.0000
  S   S645      1.0  0.3138506876227898  0.06565260058881257  -0.6881462176972475  1.0000
  S   S646      1.0  0.3138506876227898  0.06565260058881257  -0.7741875886993648  1.0000
  S   S647      1.0  0.943811394891945  0.0675171736997056  -0.6881462176972475  1.0000
  S   S648      1.0  0.943811394891945  0.0675171736997056  -0.7741875886993648  1.0000
  S   S649      1.0  0.37547226839957687  0.0712614176794746  -0.6881462176972475  1.0000
  S   S650      1.0  0.37547226839957687  0.0712614176794746  -0.7741875886993648  1.0000
  S   S651      1.0  1.0  0.06869479882237489  -0.6881462176972475  1.0000
  S   S652      1.0  1.0  0.06869479882237489  -0.7741875886993648  1.0000
  S   S653      1.0  0.43222003929273084  0.0745829244357213  -0.6881462176972475  1.0000
  S   S654      1.0  0.43222003929273084  0.0745829244357213  -0.7741875886993648  1.0000
  S   S655      1.0  0.49410609037328096  0.0814524043179588  -0.6881462176972475  1.0000
  S   S656      1.0  0.49410609037328096  0.0814524043179588  -0.7741875886993648  1.0000
  S   S657      1.0  0.5533258490036487  0.08741062666479742  -0.6881462176972475  1.0000
  S   S658      1.0  0.5533258490036487  0.08741062666479742  -0.7741875886993648  1.0000
  S   S659      1.0  0.6116568434839554  0.092639842983317  -0.6881462176972475  1.0000
  S   S660      1.0  0.6116568434839554  0.092639842983317  -0.7741875886993648  1.0000
  S   S661      1.0  0.041861870938491766  0.09624820714123954  -0.6881462176972475  1.0000
  S   S662      1.0  0.041861870938491766  0.09624820714123954  -0.7741875886993648  1.0000
  S   S663      1.0  0.6709233791748527  0.0967080024979927  -0.6881462176972475  1.0000
  S   S664      1.0  0.6709233791748527  0.0967080024979927  -0.7741875886993648  1.0000
  S   S665      1.0  0.10201557156370515  0.1008977574237633  -0.6881462176972475  1.0000
  S   S666      1.0  0.10201557156370515  0.1008977574237633  -0.7741875886993648  1.0000
  S   S667      1.0  0.7324352137711666  0.10374316556848452  -0.6881462176972475  1.0000
  S   S668      1.0  0.7324352137711666  0.10374316556848452  -0.7741875886993648  1.0000
  S   S669      1.0  0.16110019646365423  0.1069676153091266  -0.6881462176972475  1.0000
  S   S670      1.0  0.16110019646365423  0.1069676153091266  -0.7741875886993648  1.0000
  S   S671      1.0  0.22182532595106266  0.10931691795283553  -0.6881462176972475  1.0000
  S   S672      1.0  0.22182532595106266  0.10931691795283553  -0.7741875886993648  1.0000
  S   S673      1.0  0.7917485265225934  0.10991167811579981  -0.6881462176972475  1.0000
  S   S674      1.0  0.7917485265225934  0.10991167811579981  -0.7741875886993648  1.0000
  S   S675      1.0  0.8508513425016371  0.11203794569839713  -0.6881462176972475  1.0000
  S   S676      1.0  0.8508513425016371  0.11203794569839713  -0.7741875886993648  1.0000
  S   S677      1.0  0.28157451585742355  0.11383709519136409  -0.6881462176972475  1.0000
  S   S678      1.0  0.28157451585742355  0.11383709519136409  -0.7741875886993648  1.0000
  S   S679      1.0  0.9091173688423198  0.11659942572602043  -0.6881462176972475  1.0000
  S   S680      1.0  0.9091173688423198  0.11659942572602043  -0.7741875886993648  1.0000
  S   S681      1.0  0.3408644400785855  0.11874386653581945  -0.6881462176972475  1.0000
  S   S682      1.0  0.3408644400785855  0.11874386653581945  -0.7741875886993648  1.0000
  S   S683      1.0  0.9697445972495089  0.1198037291462218  -0.6881462176972475  1.0000
  S   S684      1.0  0.9697445972495089  0.1198037291462218  -0.7741875886993648  1.0000
  S   S685      1.0  0.39760501450088875  0.12710874339922426  -0.6881462176972475  1.0000
  S   S686      1.0  0.39760501450088875  0.12710874339922426  -0.7741875886993648  1.0000
  S   S687      1.0  0.456959906861675  0.1296841493112347  -0.6881462176972475  1.0000
  S   S688      1.0  0.456959906861675  0.1296841493112347  -0.7741875886993648  1.0000
  S   S689      1.0  0.518664047151277  0.13542688910696762  -0.6881462176972475  1.0000
  S   S690      1.0  0.518664047151277  0.13542688910696762  -0.7741875886993648  1.0000
  S   S691      1.0  0.5776031434184676  0.1429363826428297  -0.6881462176972475  1.0000
  S   S692      1.0  0.5776031434184676  0.1429363826428297  -0.7741875886993648  1.0000
  S   S693      1.0  0.6385068762278978  0.14622178606476938  -0.6881462176972475  1.0000
  S   S694      1.0  0.6385068762278978  0.14622178606476938  -0.7741875886993648  1.0000
  S   S695      1.0  0.010609037328094303  0.14798822374877335  -0.6881462176972475  1.0000
  S   S696      1.0  0.010609037328094303  0.14798822374877335  -0.7741875886993648  1.0000
  S   S697      1.0  0.06761059548811056  0.15166999424723362  -0.6881462176972475  1.0000
  S   S698      1.0  0.06761059548811056  0.15166999424723362  -0.7741875886993648  1.0000
  S   S699      1.0  0.6964636542239686  0.15210991167811583  -0.6881462176972475  1.0000
  S   S700      1.0  0.6964636542239686  0.15210991167811583  -0.7741875886993648  1.0000
  S   S701      1.0  0.12755584661282107  0.1542543524879148  -0.6881462176972475  1.0000
  S   S702      1.0  0.12755584661282107  0.1542543524879148  -0.7741875886993648  1.0000
  S   S703      1.0  0.7560433928418895  0.15701668302257116  -0.6881462176972475  1.0000
  S   S704      1.0  0.7560433928418895  0.15701668302257116  -0.7741875886993648  1.0000
  S   S705      1.0  0.18860510805500982  0.15920585793009737  -0.6881462176972475  1.0000
  S   S706      1.0  0.18860510805500982  0.15920585793009737  -0.7741875886993648  1.0000
  S   S707      1.0  0.8141599359674015  0.16079671428052195  -0.6881462176972475  1.0000
  S   S708      1.0  0.8141599359674015  0.16079671428052195  -0.7741875886993648  1.0000
  S   S709      1.0  0.24789503227617177  0.16423664657226975  -0.6881462176972475  1.0000
  S   S710      1.0  0.24789503227617177  0.16423664657226975  -0.7741875886993648  1.0000
  S   S711      1.0  0.8750762143486213  0.16473215796419752  -0.6881462176972475  1.0000
  S   S712      1.0  0.8750762143486213  0.16473215796419752  -0.7741875886993648  1.0000
  S   S713      1.0  0.3056828931092192  0.16893832006687748  -0.6881462176972475  1.0000
  S   S714      1.0  0.3056828931092192  0.16893832006687748  -0.7741875886993648  1.0000
  S   S715      1.0  0.9351669941060904  0.16913427486453045  -0.6881462176972475  1.0000
  S   S716      1.0  0.9351669941060904  0.16913427486453045  -0.7741875886993648  1.0000
  S   S717      1.0  0.36425816779451364  0.17518991022425762  -0.6881462176972475  1.0000
  S   S718      1.0  0.36425816779451364  0.17518991022425762  -0.7741875886993648  1.0000
  S   S719      1.0  0.9962493302375424  0.1773574805959497  -0.6881462176972475  1.0000
  S   S720      1.0  0.9962493302375424  0.1773574805959497  -0.7741875886993648  1.0000
  S   S721      1.0  0.4235756385068762  0.17986261040235527  -0.6881462176972475  1.0000
  S   S722      1.0  0.4235756385068762  0.17986261040235527  -0.7741875886993648  1.0000
  S   S723      1.0  0.48560690185359184  0.18645731108930325  -0.6881462176972475  1.0000
  S   S724      1.0  0.48560690185359184  0.18645731108930325  -0.7741875886993648  1.0000
  S   S725      1.0  0.5430731678275883  0.19121539239301752  -0.6881462176972475  1.0000
  S   S726      1.0  0.5430731678275883  0.19121539239301752  -0.7741875886993648  1.0000
  S   S727      1.0  0.6041257367387033  0.1949623814196925  -0.6881462176972475  1.0000
  S   S728      1.0  0.6041257367387033  0.1949623814196925  -0.7741875886993648  1.0000
  S   S729      1.0  0.6620825147347741  0.19962381419692507  -0.6881462176972475  1.0000
  S   S730      1.0  0.6620825147347741  0.19962381419692507  -0.7741875886993648  1.0000
  S   S731      1.0  0.03323510150622135  0.20003271180896307  -0.6881462176972475  1.0000
  S   S732      1.0  0.03323510150622135  0.20003271180896307  -0.7741875886993648  1.0000
  S   S733      1.0  0.09430255402750491  0.20378034731407604  -0.6881462176972475  1.0000
  S   S734      1.0  0.09430255402750491  0.20378034731407604  -0.7741875886993648  1.0000
  S   S735      1.0  0.7220039292730845  0.20412168792934252  -0.6881462176972475  1.0000
  S   S736      1.0  0.7220039292730845  0.20412168792934252  -0.7741875886993648  1.0000
  S   S737      1.0  0.15324165029469547  0.2070657507360157  -0.6881462176972475  1.0000
  S   S738      1.0  0.15324165029469547  0.2070657507360157  -0.7741875886993648  1.0000
  S   S739      1.0  0.7801873961009521  0.20865101532422436  -0.6881462176972475  1.0000
  S   S740      1.0  0.7801873961009521  0.20865101532422436  -0.7741875886993648  1.0000
  S   S741      1.0  0.21262725486694053  0.21348916049602998  -0.6881462176972475  1.0000
  S   S742      1.0  0.21262725486694053  0.21348916049602998  -0.7741875886993648  1.0000
  S   S743      1.0  0.8410430434006072  0.2141136586671425  -0.6881462176972475  1.0000
  S   S744      1.0  0.8410430434006072  0.2141136586671425  -0.7741875886993648  1.0000
  S   S745      1.0  0.2719202503092484  0.21967797041398615  -0.6881462176972475  1.0000
  S   S746      1.0  0.2719202503092484  0.21967797041398615  -0.7741875886993648  1.0000
  S   S747      1.0  0.9004080398972344  0.2200498226013437  -0.6881462176972475  1.0000
  S   S748      1.0  0.9004080398972344  0.2200498226013437  -0.7741875886993648  1.0000
  S   S749      1.0  0.3320235756385069  0.22201253113912583  -0.6881462176972475  1.0000
  S   S750      1.0  0.3320235756385069  0.22201253113912583  -0.7741875886993648  1.0000
  S   S751      1.0  0.9607072691552063  0.22397523967690797  -0.6881462176972475  1.0000
  S   S752      1.0  0.9607072691552063  0.22397523967690797  -0.7741875886993648  1.0000
  S   S753      1.0  0.38981098841541906  0.22977225813001256  -0.6881462176972475  1.0000
  S   S754      1.0  0.38981098841541906  0.22977225813001256  -0.7741875886993648  1.0000
  S   S755      1.0  0.45088408644400785  0.23328192906210574  -0.6881462176972475  1.0000
  S   S756      1.0  0.45088408644400785  0.23328192906210574  -0.7741875886993648  1.0000
  S   S757      1.0  0.5096538174920399  0.2383675679334033  -0.6881462176972475  1.0000
  S   S758      1.0  0.5096538174920399  0.2383675679334033  -0.7741875886993648  1.0000
  S   S759      1.0  0.5697445972495089  0.24084069349035003  -0.6881462176972475  1.0000
  S   S760      1.0  0.5697445972495089  0.24084069349035003  -0.7741875886993648  1.0000
  S   S761      1.0  0.007858546168958742  0.24589934109070521  -0.6881462176972475  1.0000
  S   S762      1.0  0.007858546168958742  0.24589934109070521  -0.7741875886993648  1.0000
  S   S763      1.0  0.628079189965241  0.24737676455046428  -0.6881462176972475  1.0000
  S   S764      1.0  0.628079189965241  0.24737676455046428  -0.7741875886993648  1.0000
  S   S765      1.0  0.060903732809430254  0.2512266928361139  -0.6881462176972475  1.0000
  S   S766      1.0  0.060903732809430254  0.2512266928361139  -0.7741875886993648  1.0000
  S   S767      1.0  0.68762278978389  0.2512266928361139  -0.6881462176972475  1.0000
  S   S768      1.0  0.68762278978389  0.2512266928361139  -0.7741875886993648  1.0000
  S   S769      1.0  0.12300028066236317  0.25550259357913924  -0.6881462176972475  1.0000
  S   S770      1.0  0.12300028066236317  0.25550259357913924  -0.7741875886993648  1.0000
  S   S771      1.0  0.17976424361493124  0.26202158979391565  -0.6881462176972475  1.0000
  S   S772      1.0  0.17976424361493124  0.26202158979391565  -0.7741875886993648  1.0000
  S   S773      1.0  0.7471232107774348  0.26005888125613347  -0.6881462176972475  1.0000
  S   S774      1.0  0.7471232107774348  0.26005888125613347  -0.7741875886993648  1.0000
  S   S775      1.0  0.8076923076923077  0.2636068543821243  -0.6881462176972475  1.0000
  S   S776      1.0  0.8076923076923077  0.2636068543821243  -0.7741875886993648  1.0000
  S   S777      1.0  0.24066797642436147  0.2659470068694799  -0.6881462176972475  1.0000
  S   S778      1.0  0.24066797642436147  0.2659470068694799  -0.7741875886993648  1.0000
  S   S779      1.0  0.8673870333988213  0.2688910696761531  -0.6881462176972475  1.0000
  S   S780      1.0  0.8673870333988213  0.2688910696761531  -0.7741875886993648  1.0000
  S   S781      1.0  0.29775158262388124  0.2723803292988769  -0.6881462176972475  1.0000
  S   S782      1.0  0.29775158262388124  0.2723803292988769  -0.7741875886993648  1.0000
  S   S783      1.0  0.925254509733881  0.27335177089838525  -0.6881462176972475  1.0000
  S   S784      1.0  0.925254509733881  0.27335177089838525  -0.7741875886993648  1.0000
  S   S785      1.0  0.3565815324165029  0.27870461236506383  -0.6881462176972475  1.0000
  S   S786      1.0  0.3565815324165029  0.27870461236506383  -0.7741875886993648  1.0000
  S   S787      1.0  0.4157170923379175  0.2805888125613347  -0.6881462176972475  1.0000
  S   S788      1.0  0.4157170923379175  0.2805888125613347  -0.7741875886993648  1.0000
  S   S789      1.0  0.9801080550098231  0.278459273797841  -0.6881462176972475  1.0000
  S   S790      1.0  0.9801080550098231  0.278459273797841  -0.7741875886993648  1.0000
  S   S791      1.0  0.4769351669941061  0.28616290480863593  -0.6881462176972475  1.0000
  S   S792      1.0  0.4769351669941061  0.28616290480863593  -0.7741875886993648  1.0000
  S   S793      1.0  0.5354585208188098  0.2893412263762702  -0.6881462176972475  1.0000
  S   S794      1.0  0.5354585208188098  0.2893412263762702  -0.7741875886993648  1.0000
  S   S795      1.0  0.5958206822646901  0.2925327861539834  -0.6881462176972475  1.0000
  S   S796      1.0  0.5958206822646901  0.2925327861539834  -0.7741875886993648  1.0000
  S   S797      1.0  0.027278222759558716  0.3002944062806674  -0.6881462176972475  1.0000
  S   S798      1.0  0.027278222759558716  0.3002944062806674  -0.7741875886993648  1.0000
  S   S799      1.0  0.6543811394891944  0.30186457311089304  -0.6881462176972475  1.0000
  S   S800      1.0  0.6543811394891944  0.30186457311089304  -0.7741875886993648  1.0000
  S   S801      1.0  0.08884523029906134  0.3042925162650384  -0.6881462176972475  1.0000
  S   S802      1.0  0.08884523029906134  0.3042925162650384  -0.7741875886993648  1.0000
  S   S803      1.0  0.7147534848910093  0.3062759942053367  -0.6881462176972475  1.0000
  S   S804      1.0  0.7147534848910093  0.3062759942053367  -0.7741875886993648  1.0000
  S   S805      1.0  0.1457760314341847  0.31026496565260064  -0.6881462176972475  1.0000
  S   S806      1.0  0.1457760314341847  0.31026496565260064  -0.7741875886993648  1.0000
  S   S807      1.0  0.7721021611001964  0.3124119981226266  -0.6881462176972475  1.0000
  S   S808      1.0  0.7721021611001964  0.3124119981226266  -0.7741875886993648  1.0000
  S   S809      1.0  0.2043222003929273  0.315654733967658  -0.6881462176972475  1.0000
  S   S810      1.0  0.2043222003929273  0.315654733967658  -0.7741875886993648  1.0000
  S   S811      1.0  0.8313219197305641  0.31758493387541475  -0.6881462176972475  1.0000
  S   S812      1.0  0.8313219197305641  0.31758493387541475  -0.7741875886993648  1.0000
  S   S813      1.0  0.26354195902329497  0.3204121687929343  -0.6881462176972475  1.0000
  S   S814      1.0  0.26354195902329497  0.3204121687929343  -0.7741875886993648  1.0000
  S   S815      1.0  0.891781270464964  0.3220477592410861  -0.6881462176972475  1.0000
  S   S816      1.0  0.891781270464964  0.3220477592410861  -0.7741875886993648  1.0000
  S   S817      1.0  0.3228552717747217  0.3267909715407262  -0.6881462176972475  1.0000
  S   S818      1.0  0.3228552717747217  0.3267909715407262  -0.7741875886993648  1.0000
  S   S819      1.0  0.9508840864440079  0.3274309851943509  -0.6881462176972475  1.0000
  S   S820      1.0  0.9508840864440079  0.3274309851943509  -0.7741875886993648  1.0000
  S   S821      1.0  0.3805349856430406  0.32996150071714353  -0.6881462176972475  1.0000
  S   S822      1.0  0.3805349856430406  0.32996150071714353  -0.7741875886993648  1.0000
  S   S823      1.0  0.4417015460835398  0.33169774288518156  -0.6881462176972475  1.0000
  S   S824      1.0  0.4417015460835398  0.33169774288518156  -0.7741875886993648  1.0000
  S   S825      1.0  0.5028014261806011  0.34034819903318436  -0.6881462176972475  1.0000
  S   S826      1.0  0.5028014261806011  0.34034819903318436  -0.7741875886993648  1.0000
  S   S827      1.0  0.5607218220184821  0.3436193799294879  -0.6881462176972475  1.0000
  S   S828      1.0  0.5607218220184821  0.3436193799294879  -0.7741875886993648  1.0000
  S   S829      1.0  0.6186819074834792  0.34954054777411014  -0.6881462176972475  1.0000
  S   S830      1.0  0.6186819074834792  0.34954054777411014  -0.7741875886993648  1.0000
  S   S831      1.0  0.05324842490346183  0.35389665324354513  -0.6881462176972475  1.0000
  S   S832      1.0  0.05324842490346183  0.35389665324354513  -0.7741875886993648  1.0000
  S   S833      1.0  0.6771951035212332  0.3562315996074583  -0.6881462176972475  1.0000
  S   S834      1.0  0.6771951035212332  0.3562315996074583  -0.7741875886993648  1.0000
  S   S835      1.0  0.1127846903878338  0.36099298513430017  -0.6881462176972475  1.0000
  S   S836      1.0  0.1127846903878338  0.36099298513430017  -0.7741875886993648  1.0000
  S   S837      1.0  0.7380484610347086  0.3608930323846909  -0.6881462176972475  1.0000
  S   S838      1.0  0.7380484610347086  0.3608930323846909  -0.7741875886993648  1.0000
  S   S839      1.0  0.17208760823692063  0.36520917384509144  -0.6881462176972475  1.0000
  S   S840      1.0  0.17208760823692063  0.36520917384509144  -0.7741875886993648  1.0000
  S   S841      1.0  0.7986247544204322  0.366045142296369  -0.6881462176972475  1.0000
  S   S842      1.0  0.7986247544204322  0.366045142296369  -0.7741875886993648  1.0000
  S   S843      1.0  0.23045781984878252  0.37077348559193507  -0.6881462176972475  1.0000
  S   S844      1.0  0.23045781984878252  0.37077348559193507  -0.7741875886993648  1.0000
  S   S845      1.0  0.8568126661273546  0.3701437395370317  -0.6881462176972475  1.0000
  S   S846      1.0  0.8568126661273546  0.3701437395370317  -0.7741875886993648  1.0000
  S   S847      1.0  0.29011132940406026  0.37526987242394505  -0.6881462176972475  1.0000
  S   S848      1.0  0.29011132940406026  0.37526987242394505  -0.7741875886993648  1.0000
  S   S849      1.0  0.9168958742632612  0.37507360157016684  -0.6881462176972475  1.0000
  S   S850      1.0  0.9168958742632612  0.37507360157016684  -0.7741875886993648  1.0000
  S   S851      1.0  0.34933108803442786  0.3804850693957662  -0.6881462176972475  1.0000
  S   S852      1.0  0.34933108803442786  0.3804850693957662  -0.7741875886993648  1.0000
  S   S853      1.0  0.4086444007858546  0.38347586335810085  -0.6881462176972475  1.0000
  S   S854      1.0  0.4086444007858546  0.38347586335810085  -0.7741875886993648  1.0000
  S   S855      1.0  0.9757694826457105  0.3833824010467779  -0.6881462176972475  1.0000
  S   S856      1.0  0.9757694826457105  0.3833824010467779  -0.7741875886993648  1.0000
  S   S857      1.0  0.46669624184042086  0.38975592769635004  -0.6881462176972475  1.0000
  S   S858      1.0  0.46669624184042086  0.38975592769635004  -0.7741875886993648  1.0000
  S   S859      1.0  0.5273464731605298  0.3910855044477508  -0.6881462176972475  1.0000
  S   S860      1.0  0.5273464731605298  0.3910855044477508  -0.7741875886993648  1.0000
  S   S861      1.0  0.5865390709170417  0.3972901959542879  -0.6881462176972475  1.0000
  S   S862      1.0  0.5865390709170417  0.3972901959542879  -0.7741875886993648  1.0000
  S   S863      1.0  0.018515211049592188  0.4012252059357065  -0.6881462176972475  1.0000
  S   S864      1.0  0.018515211049592188  0.4012252059357065  -0.7741875886993648  1.0000
  S   S865      1.0  0.6445463144873754  0.40315487224221286  -0.6881462176972475  1.0000
  S   S866      1.0  0.6445463144873754  0.40315487224221286  -0.7741875886993648  1.0000
  S   S867      1.0  0.08127046496398167  0.40896303565587183  -0.6881462176972475  1.0000
  S   S868      1.0  0.08127046496398167  0.40896303565587183  -0.7741875886993648  1.0000
  S   S869      1.0  0.7054831219860689  0.40806494780979574  -0.6881462176972475  1.0000
  S   S870      1.0  0.7054831219860689  0.40806494780979574  -0.7741875886993648  1.0000
  S   S871      1.0  0.13719711853307137  0.4153091265947007  -0.6881462176972475  1.0000
  S   S872      1.0  0.13719711853307137  0.4153091265947007  -0.7741875886993648  1.0000
  S   S873      1.0  0.7640253219820999  0.4150765092865192  -0.6881462176972475  1.0000
  S   S874      1.0  0.7640253219820999  0.4150765092865192  -0.7741875886993648  1.0000
  S   S875      1.0  0.19367513784143484  0.41755041311849067  -0.6881462176972475  1.0000
  S   S876      1.0  0.19367513784143484  0.41755041311849067  -0.7741875886993648  1.0000
  S   S877      1.0  0.8224588977354979  0.41960642528795  -0.6881462176972475  1.0000
  S   S878      1.0  0.8224588977354979  0.41960642528795  -0.7741875886993648  1.0000
  S   S879      1.0  0.25671250818598557  0.4249263984298332  -0.6881462176972475  1.0000
  S   S880      1.0  0.25671250818598557  0.4249263984298332  -0.7741875886993648  1.0000
  S   S881      1.0  0.8831041257367387  0.42630029440628064  -0.6881462176972475  1.0000
  S   S882      1.0  0.8831041257367387  0.42630029440628064  -0.7741875886993648  1.0000
  S   S883      1.0  0.31335952848722987  0.4298331697742886  -0.6881462176972475  1.0000
  S   S884      1.0  0.31335952848722987  0.4298331697742886  -0.7741875886993648  1.0000
  S   S885      1.0  0.9408342149010125  0.43021061372386205  -0.6881462176972475  1.0000
  S   S886      1.0  0.9408342149010125  0.43021061372386205  -0.7741875886993648  1.0000
  S   S887      1.0  0.37485265225933206  0.4319528949950933  -0.6881462176972475  1.0000
  S   S888      1.0  0.37485265225933206  0.4319528949950933  -0.7741875886993648  1.0000
  S   S889      1.0  0.43410609037328096  0.43846908734053  -0.6881462176972475  1.0000
  S   S890      1.0  0.43410609037328096  0.43846908734053  -0.7741875886993648  1.0000
  S   S891      1.0  0.49214145383104124  0.44259077526987245  -0.6881462176972475  1.0000
  S   S892      1.0  0.49214145383104124  0.44259077526987245  -0.7741875886993648  1.0000
  S   S893      1.0  0.5520628683693517  0.44553483807654565  -0.6881462176972475  1.0000
  S   S894      1.0  0.5520628683693517  0.44553483807654565  -0.7741875886993648  1.0000
  S   S895      1.0  0.6114734774066798  0.45150147203140334  -0.6881462176972475  1.0000
  S   S896      1.0  0.6114734774066798  0.45150147203140334  -0.7741875886993648  1.0000
  S   S897      1.0  0.04322200392927309  0.45632973503434743  -0.6881462176972475  1.0000
  S   S898      1.0  0.04322200392927309  0.45632973503434743  -0.7741875886993648  1.0000
  S   S899      1.0  0.6677659275891104  0.4573811860367307  -0.6881462176972475  1.0000
  S   S900      1.0  0.6677659275891104  0.4573811860367307  -0.7741875886993648  1.0000
  S   S901      1.0  0.7299640945735384  0.46259009847382493  -0.6881462176972475  1.0000
  S   S902      1.0  0.7299640945735384  0.46259009847382493  -0.7741875886993648  1.0000
  S   S903      1.0  0.10279259051361213  0.46319921491658494  -0.6881462176972475  1.0000
  S   S904      1.0  0.10279259051361213  0.46319921491658494  -0.7741875886993648  1.0000
  S   S905      1.0  0.16219166120934295  0.46792425398902343  -0.6881462176972475  1.0000
  S   S906      1.0  0.16219166120934295  0.46792425398902343  -0.7741875886993648  1.0000
  S   S907      1.0  0.787819253438114  0.47070870845244706  -0.6881462176972475  1.0000
  S   S908      1.0  0.787819253438114  0.47070870845244706  -0.7741875886993648  1.0000
  S   S909      1.0  0.22282780911337854  0.4735192630346007  -0.6881462176972475  1.0000
  S   S910      1.0  0.22282780911337854  0.4735192630346007  -0.7741875886993648  1.0000
  S   S911      1.0  0.8477406679764243  0.47354804175216353  -0.6881462176972475  1.0000
  S   S912      1.0  0.8477406679764243  0.47354804175216353  -0.7741875886993648  1.0000
  S   S913      1.0  0.9094481157349528  0.47711660272994916  -0.6881462176972475  1.0000
  S   S914      1.0  0.9094481157349528  0.47711660272994916  -0.7741875886993648  1.0000
  S   S915      1.0  0.2819253438113949  0.47890088321884206  -0.6881462176972475  1.0000
  S   S916      1.0  0.2819253438113949  0.47890088321884206  -0.7741875886993648  1.0000
  S   S917      1.0  0.34055746561886047  0.4828263002944063  -0.6881462176972475  1.0000
  S   S918      1.0  0.34055746561886047  0.4828263002944063  -0.7741875886993648  1.0000
  S   S919      1.0  0.9675834970530452  0.4847890088321885  -0.6881462176972475  1.0000
  S   S920      1.0  0.9675834970530452  0.4847890088321885  -0.7741875886993648  1.0000
  S   S921      1.0  0.39719825745280596  0.4867517173699706  -0.6881462176972475  1.0000
  S   S922      1.0  0.39719825745280596  0.4867517173699706  -0.7741875886993648  1.0000
  S   S923      1.0  0.4585607218220185  0.4924944571657035  -0.6881462176972475  1.0000
  S   S924      1.0  0.4585607218220185  0.4924944571657035  -0.7741875886993648  1.0000
  S   S925      1.0  0.5202778557395452  0.497756904528249  -0.6881462176972475  1.0000
  S   S926      1.0  0.5202778557395452  0.497756904528249  -0.7741875886993648  1.0000
  S   S927      1.0  0.5777386355937945  0.5013028323914589  -0.6881462176972475  1.0000
  S   S928      1.0  0.5777386355937945  0.5013028323914589  -0.7741875886993648  1.0000
  S   S929      1.0  0.010805500982318273  0.5059862610402356  -0.6881462176972475  1.0000
  S   S930      1.0  0.010805500982318273  0.5059862610402356  -0.7741875886993648  1.0000
  S   S931      1.0  0.635209093460567  0.5083415112855741  -0.6881462176972475  1.0000
  S   S932      1.0  0.635209093460567  0.5083415112855741  -0.7741875886993648  1.0000
  S   S933      1.0  0.06792879680895399  0.5114342641329884  -0.6881462176972475  1.0000
  S   S934      1.0  0.06792879680895399  0.5114342641329884  -0.7741875886993648  1.0000
  S   S935      1.0  0.6960910507418197  0.5124699671753918  -0.6881462176972475  1.0000
  S   S936      1.0  0.6960910507418197  0.5124699671753918  -0.7741875886993648  1.0000
  S   S937      1.0  0.12770137524557956  0.5181550539744848  -0.6881462176972475  1.0000
  S   S938      1.0  0.12770137524557956  0.5181550539744848  -0.7741875886993648  1.0000
  S   S939      1.0  0.7527364580409768  0.5185289032197766  -0.6881462176972475  1.0000
  S   S940      1.0  0.7527364580409768  0.5185289032197766  -0.7741875886993648  1.0000
  S   S941      1.0  0.1858275184608089  0.5219451118405468  -0.6881462176972475  1.0000
  S   S942      1.0  0.1858275184608089  0.5219451118405468  -0.7741875886993648  1.0000
  S   S943      1.0  0.8115734952670118  0.5219020430011599  -0.6881462176972475  1.0000
  S   S944      1.0  0.8115734952670118  0.5219020430011599  -0.7741875886993648  1.0000
  S   S945      1.0  0.24623444662737393  0.5263984298331698  -0.6881462176972475  1.0000
  S   S946      1.0  0.24623444662737393  0.5263984298331698  -0.7741875886993648  1.0000
  S   S947      1.0  0.8742632612966601  0.5267535866161971  -0.6881462176972475  1.0000
  S   S948      1.0  0.8742632612966601  0.5267535866161971  -0.7741875886993648  1.0000
  S   S949      1.0  0.30512837883612226  0.5316909749247064  -0.6881462176972475  1.0000
  S   S950      1.0  0.30512837883612226  0.5316909749247064  -0.7741875886993648  1.0000
  S   S951      1.0  0.36804191224623445  0.5356740449969106  -0.6881462176972475  1.0000
  S   S952      1.0  0.36804191224623445  0.5356740449969106  -0.7741875886993648  1.0000
  S   S953      1.0  0.9324165029469549  0.5346418056918547  -0.6881462176972475  1.0000
  S   S954      1.0  0.9324165029469549  0.5346418056918547  -0.7741875886993648  1.0000
  S   S955      1.0  0.42354854007181086  0.5422489932658794  -0.6881462176972475  1.0000
  S   S956      1.0  0.42354854007181086  0.5422489932658794  -0.7741875886993648  1.0000
  S   S957      1.0  0.4860019646365422  0.5449582924435722  -0.6881462176972475  1.0000
  S   S958      1.0  0.4860019646365422  0.5449582924435722  -0.7741875886993648  1.0000
  S   S959      1.0  0.5456269900413251  0.5503705458360123  -0.6881462176972475  1.0000
  S   S960      1.0  0.5456269900413251  0.5503705458360123  -0.7741875886993648  1.0000
  S   S961      1.0  0.6027862118235399  0.5558925863145687  -0.6881462176972475  1.0000
  S   S962      1.0  0.6027862118235399  0.5558925863145687  -0.7741875886993648  1.0000
  S   S963      1.0  0.6587577452017531  0.5592964444779951  -0.6881462176972475  1.0000
  S   S964      1.0  0.6587577452017531  0.5592964444779951  -0.7741875886993648  1.0000
  S   S965      1.0  0.03278910642910372  0.5615376806199452  -0.6881462176972475  1.0000
  S   S966      1.0  0.03278910642910372  0.5615376806199452  -0.7741875886993648  1.0000
  S   S967      1.0  0.09211122865346834  0.5651845700913415  -0.6881462176972475  1.0000
  S   S968      1.0  0.09211122865346834  0.5651845700913415  -0.7741875886993648  1.0000
  S   S969      1.0  0.7196614780111833  0.5669963010492942  -0.6881462176972475  1.0000
  S   S970      1.0  0.7196614780111833  0.5669963010492942  -0.7741875886993648  1.0000
  S   S971      1.0  0.150098231827112  0.5706771344455349  -0.6881462176972475  1.0000
  S   S972      1.0  0.150098231827112  0.5706771344455349  -0.7741875886993648  1.0000
  S   S973      1.0  0.7778174674048938  0.5709697564457134  -0.6881462176972475  1.0000
  S   S974      1.0  0.7778174674048938  0.5709697564457134  -0.7741875886993648  1.0000
  S   S975      1.0  0.21083005893909626  0.5748282630029441  -0.6881462176972475  1.0000
  S   S976      1.0  0.21083005893909626  0.5748282630029441  -0.7741875886993648  1.0000
  S   S977      1.0  0.8398821218074657  0.5750736015701668  -0.6881462176972475  1.0000
  S   S978      1.0  0.8398821218074657  0.5750736015701668  -0.7741875886993648  1.0000
  S   S979      1.0  0.2688043783328656  0.5842562736576477  -0.6881462176972475  1.0000
  S   S980      1.0  0.2688043783328656  0.5842562736576477  -0.7741875886993648  1.0000
  S   S981      1.0  0.8981805757239258  0.5829244357212955  -0.6881462176972475  1.0000
  S   S982      1.0  0.8981805757239258  0.5829244357212955  -0.7741875886993648  1.0000
  S   S983      1.0  0.3327603143418468  0.5875245338567223  -0.6881462176972475  1.0000
  S   S984      1.0  0.3327603143418468  0.5875245338567223  -0.7741875886993648  1.0000
  S   S985      1.0  0.9590232949761437  0.5872237020421516  -0.6881462176972475  1.0000
  S   S986      1.0  0.9590232949761437  0.5872237020421516  -0.7741875886993648  1.0000
  S   S987      1.0  0.3923853397466296  0.5915874251294373  -0.6881462176972475  1.0000
  S   S988      1.0  0.3923853397466296  0.5915874251294373  -0.7741875886993648  1.0000
  S   S989      1.0  0.4499719337636823  0.5931585588111595  -0.6881462176972475  1.0000
  S   S990      1.0  0.4499719337636823  0.5931585588111595  -0.7741875886993648  1.0000
  S   S991      1.0  0.5082704860891057  0.5972332140935137  -0.6881462176972475  1.0000
  S   S992      1.0  0.5082704860891057  0.5972332140935137  -0.7741875886993648  1.0000
  S   S993      1.0  0.5676396295256806  0.6026917145661013  -0.6881462176972475  1.0000
  S   S994      1.0  0.5676396295256806  0.6026917145661013  -0.7741875886993648  1.0000
  S   S995      1.0  0.6259634275351369  0.6097229561410131  -0.6881462176972475  1.0000
  S   S996      1.0  0.6259634275351369  0.6097229561410131  -0.7741875886993648  1.0000
  S   S997      1.0  0.0593703579471944  0.6138969338662964  -0.6881462176972475  1.0000
  S   S998      1.0  0.0593703579471944  0.6138969338662964  -0.7741875886993648  1.0000
  S   S999      1.0  0.6864440078585461  0.6124435721295388  -0.6881462176972475  1.0000
  S   S1000     1.0  0.6864440078585461  0.6124435721295388  -0.7741875886993648  1.0000
  S   S1001     1.0  0.7445972495088409  0.6207883545960092  -0.6881462176972475  1.0000
  S   S1002     1.0  0.7445972495088409  0.6207883545960092  -0.7741875886993648  1.0000
  S   S1003     1.0  0.11707778505420942  0.6220332206593246  -0.6881462176972475  1.0000
  S   S1004     1.0  0.11707778505420942  0.6220332206593246  -0.7741875886993648  1.0000
  S   S1005     1.0  0.17583497053045186  0.6264720314033367  -0.6881462176972475  1.0000
  S   S1006     1.0  0.17583497053045186  0.6264720314033367  -0.7741875886993648  1.0000
  S   S1007     1.0  0.806483300589391  0.6261040235525025  -0.6881462176972475  1.0000
  S   S1008     1.0  0.806483300589391  0.6261040235525025  -0.7741875886993648  1.0000
  S   S1009     1.0  0.23822802458964448  0.6308525119503626  -0.6881462176972475  1.0000
  S   S1010     1.0  0.23822802458964448  0.6308525119503626  -0.7741875886993648  1.0000
  S   S1011     1.0  0.8644400785854617  0.6316508085505824  -0.6881462176972475  1.0000
  S   S1012     1.0  0.8644400785854617  0.6316508085505824  -0.7741875886993648  1.0000
  S   S1013     1.0  0.296581532416503  0.6351324828263003  -0.6881462176972475  1.0000
  S   S1014     1.0  0.296581532416503  0.6351324828263003  -0.7741875886993648  1.0000
  S   S1015     1.0  0.9246504102623367  0.6349939386942215  -0.6881462176972475  1.0000
  S   S1016     1.0  0.9246504102623367  0.6349939386942215  -0.7741875886993648  1.0000
  S   S1017     1.0  0.35479880666521135  0.639988369134591  -0.6881462176972475  1.0000
  S   S1018     1.0  0.35479880666521135  0.639988369134591  -0.7741875886993648  1.0000
  S   S1019     1.0  0.9834970530451866  0.6406280667320903  -0.6881462176972475  1.0000
  S   S1020     1.0  0.9834970530451866  0.6406280667320903  -0.7741875886993648  1.0000
  S   S1021     1.0  0.4137379029324019  0.6439137862101553  -0.6881462176972475  1.0000
  S   S1022     1.0  0.4137379029324019  0.6439137862101553  -0.7741875886993648  1.0000
  S   S1023     1.0  0.4746085610525689  0.6465637731584739  -0.6881462176972475  1.0000
  S   S1024     1.0  0.4746085610525689  0.6465637731584739  -0.7741875886993648  1.0000
  S   S1025     1.0  0.5361190871996372  0.6535819430814525  -0.6881462176972475  1.0000
  S   S1026     1.0  0.5361190871996372  0.6535819430814525  -0.7741875886993648  1.0000
  S   S1027     1.0  0.5925998690242306  0.658750408897612  -0.6881462176972475  1.0000
  S   S1028     1.0  0.5925998690242306  0.658750408897612  -0.7741875886993648  1.0000
  S   S1029     1.0  0.02294414818972776  0.6629048086359176  -0.6881462176972475  1.0000
  S   S1030     1.0  0.02294414818972776  0.6629048086359176  -0.7741875886993648  1.0000
  S   S1031     1.0  0.6540602488539621  0.6635590448151782  -0.6881462176972475  1.0000
  S   S1032     1.0  0.6540602488539621  0.6635590448151782  -0.7741875886993648  1.0000
  S   S1033     1.0  0.08153241650294696  0.6687228375157719  -0.6881462176972475  1.0000
  S   S1034     1.0  0.08153241650294696  0.6687228375157719  -0.7741875886993648  1.0000
  S   S1035     1.0  0.7092337917485265  0.6706738632646386  -0.6881462176972475  1.0000
  S   S1036     1.0  0.7092337917485265  0.6706738632646386  -0.7741875886993648  1.0000
  S   S1037     1.0  0.14161755075311067  0.6730454694144588  -0.6881462176972475  1.0000
  S   S1038     1.0  0.14161755075311067  0.6730454694144588  -0.7741875886993648  1.0000
  S   S1039     1.0  0.7704181869211338  0.6725547922800132  -0.6881462176972475  1.0000
  S   S1040     1.0  0.7704181869211338  0.6725547922800132  -0.7741875886993648  1.0000
  S   S1041     1.0  0.20243032816706685  0.6795333115254607  -0.6881462176972475  1.0000
  S   S1042     1.0  0.20243032816706685  0.6795333115254607  -0.7741875886993648  1.0000
  S   S1043     1.0  0.8308626540453653  0.6808814345615132  -0.6881462176972475  1.0000
  S   S1044     1.0  0.8308626540453653  0.6808814345615132  -0.7741875886993648  1.0000
  S   S1045     1.0  0.26155861165684346  0.6834805364736671  -0.6881462176972475  1.0000
  S   S1046     1.0  0.26155861165684346  0.6834805364736671  -0.7741875886993648  1.0000
  S   S1047     1.0  0.8904715127701376  0.68351324828263  -0.6881462176972475  1.0000
  S   S1048     1.0  0.8904715127701376  0.68351324828263  -0.7741875886993648  1.0000
  S   S1049     1.0  0.32287573673870335  0.6876840039254171  -0.6881462176972475  1.0000
  S   S1050     1.0  0.32287573673870335  0.6876840039254171  -0.7741875886993648  1.0000
  S   S1051     1.0  0.9499017681728881  0.6879293424926399  -0.6881462176972475  1.0000
  S   S1052     1.0  0.9499017681728881  0.6879293424926399  -0.7741875886993648  1.0000
  S   S1053     1.0  0.3815760750927745  0.6948715152836841  -0.6881462176972475  1.0000
  S   S1054     1.0  0.3815760750927745  0.6948715152836841  -0.7741875886993648  1.0000
  S   S1055     1.0  0.44284362948410105  0.696906916730273  -0.6881462176972475  1.0000
  S   S1056     1.0  0.44284362948410105  0.696906916730273  -0.7741875886993648  1.0000
  S   S1057     1.0  0.4997380484610347  0.7033693163231928  -0.6881462176972475  1.0000
  S   S1058     1.0  0.4997380484610347  0.7033693163231928  -0.7741875886993648  1.0000
  S   S1059     1.0  0.5568160212941251  0.7099939852480294  -0.6881462176972475  1.0000
  S   S1060     1.0  0.5568160212941251  0.7099939852480294  -0.7741875886993648  1.0000
  S   S1061     1.0  0.618860510805501  0.7124631992149166  -0.6881462176972475  1.0000
  S   S1062     1.0  0.618860510805501  0.7124631992149166  -0.7741875886993648  1.0000
  S   S1063     1.0  0.6777996070726916  0.717369970559372  -0.6881462176972475  1.0000
  S   S1064     1.0  0.6777996070726916  0.717369970559372  -0.7741875886993648  1.0000
  S   S1065     1.0  0.05083497053045186  0.7196597971867845  -0.6881462176972475  1.0000
  S   S1066     1.0  0.05083497053045186  0.7196597971867845  -0.7741875886993648  1.0000
  S   S1067     1.0  0.7372806720411896  0.7234272951845961  -0.6881462176972475  1.0000
  S   S1068     1.0  0.7372806720411896  0.7234272951845961  -0.7741875886993648  1.0000
  S   S1069     1.0  0.10683880624941527  0.7233982896397029  -0.6881462176972475  1.0000
  S   S1070     1.0  0.10683880624941527  0.7233982896397029  -0.7741875886993648  1.0000
  S   S1071     1.0  0.17012297169468094  0.724094064623996  -0.6881462176972475  1.0000
  S   S1072     1.0  0.17012297169468094  0.724094064623996  -0.7741875886993648  1.0000
  S   S1073     1.0  0.7957563850687623  0.7254170755642788  -0.6881462176972475  1.0000
  S   S1074     1.0  0.7957563850687623  0.7254170755642788  -0.7741875886993648  1.0000
  S   S1075     1.0  0.2288801571709234  0.7340529931305202  -0.6881462176972475  1.0000
  S   S1076     1.0  0.2288801571709234  0.7340529931305202  -0.7741875886993648  1.0000
  S   S1077     1.0  0.8565815324165029  0.7337116525152537  -0.6881462176972475  1.0000
  S   S1078     1.0  0.8565815324165029  0.7337116525152537  -0.7741875886993648  1.0000
  S   S1079     1.0  0.28781925343811393  0.7379784102060845  -0.6881462176972475  1.0000
  S   S1080     1.0  0.28781925343811393  0.7379784102060845  -0.7741875886993648  1.0000
  S   S1081     1.0  0.9154313270226826  0.7385136943527523  -0.6881462176972475  1.0000
  S   S1082     1.0  0.9154313270226826  0.7385136943527523  -0.7741875886993648  1.0000
  S   S1083     1.0  0.3468238375900458  0.7428197579326137  -0.6881462176972475  1.0000
  S   S1084     1.0  0.3468238375900458  0.7428197579326137  -0.7741875886993648  1.0000
  S   S1085     1.0  0.9734774066797642  0.7438665358194309  -0.6881462176972475  1.0000
  S   S1086     1.0  0.9734774066797642  0.7438665358194309  -0.7741875886993648  1.0000
  S   S1087     1.0  0.4066797642436149  0.7474506122797288  -0.6881462176972475  1.0000
  S   S1088     1.0  0.4066797642436149  0.7474506122797288  -0.7741875886993648  1.0000
  S   S1089     1.0  0.46644274035109956  0.7522238753996645  -0.6881462176972475  1.0000
  S   S1090     1.0  0.46644274035109956  0.7522238753996645  -0.7741875886993648  1.0000
  S   S1091     1.0  0.5265225933202358  0.7569746249824758  -0.6881462176972475  1.0000
  S   S1092     1.0  0.5265225933202358  0.7569746249824758  -0.7741875886993648  1.0000
  S   S1093     1.0  0.5844179764243614  0.7641683022571149  -0.6881462176972475  1.0000
  S   S1094     1.0  0.5844179764243614  0.7641683022571149  -0.7741875886993648  1.0000
  S   S1095     1.0  0.017245142981881685  0.7644749754661433  -0.6881462176972475  1.0000
  S   S1096     1.0  0.017245142981881685  0.7644749754661433  -0.7741875886993648  1.0000
  S   S1097     1.0  0.6438914356399622  0.7666194162759424  -0.6881462176972475  1.0000
  S   S1098     1.0  0.6438914356399622  0.7666194162759424  -0.7741875886993648  1.0000
  S   S1099     1.0  0.07367387033398821  0.7693817468105988  -0.6881462176972475  1.0000
  S   S1100     1.0  0.07367387033398821  0.7693817468105988  -0.7741875886993648  1.0000
  S   S1101     1.0  0.7017888532726709  0.7721708589432364  -0.6881462176972475  1.0000
  S   S1102     1.0  0.7017888532726709  0.7721708589432364  -0.7741875886993648  1.0000
  S   S1103     1.0  0.13467266620191393  0.7744468011016493  -0.6881462176972475  1.0000
  S   S1104     1.0  0.13467266620191393  0.7744468011016493  -0.7741875886993648  1.0000
  S   S1105     1.0  0.7628834819404565  0.7773080697516419  -0.6881462176972475  1.0000
  S   S1106     1.0  0.7628834819404565  0.7773080697516419  -0.7741875886993648  1.0000
  S   S1107     1.0  0.19122462344466273  0.7835132482826301  -0.6881462176972475  1.0000
  S   S1108     1.0  0.19122462344466273  0.7835132482826301  -0.7741875886993648  1.0000
  S   S1109     1.0  0.8205380081607979  0.783800105684306  -0.6881462176972475  1.0000
  S   S1110     1.0  0.8205380081607979  0.783800105684306  -0.7741875886993648  1.0000
  S   S1111     1.0  0.25387469984719496  0.7851561080216626  -0.6881462176972475  1.0000
  S   S1112     1.0  0.25387469984719496  0.7851561080216626  -0.7741875886993648  1.0000
  S   S1113     1.0  0.8801571709233792  0.7862984251600542  -0.6881462176972475  1.0000
  S   S1114     1.0  0.8801571709233792  0.7862984251600542  -0.7741875886993648  1.0000
  S   S1115     1.0  0.31176749542713905  0.7907685019119489  -0.6881462176972475  1.0000
  S   S1116     1.0  0.31176749542713905  0.7907685019119489  -0.7741875886993648  1.0000
  S   S1117     1.0  0.3719916502946955  0.7939769381746812  -0.6881462176972475  1.0000
  S   S1118     1.0  0.3719916502946955  0.7939769381746812  -0.7741875886993648  1.0000
  S   S1119     1.0  0.9390962671905698  0.7929342492639844  -0.6881462176972475  1.0000
  S   S1120     1.0  0.9390962671905698  0.7929342492639844  -0.7741875886993648  1.0000
  S   S1121     1.0  0.4297460525358364  0.799621996874205  -0.6881462176972475  1.0000
  S   S1122     1.0  0.4297460525358364  0.799621996874205  -0.7741875886993648  1.0000
  S   S1123     1.0  0.49132285527177477  0.8065096499836442  -0.6881462176972475  1.0000
  S   S1124     1.0  0.49132285527177477  0.8065096499836442  -0.7741875886993648  1.0000
  S   S1125     1.0  0.5493778650949575  0.8132809944389926  -0.6881462176972475  1.0000
  S   S1126     1.0  0.5493778650949575  0.8132809944389926  -0.7741875886993648  1.0000
  S   S1127     1.0  0.6099857733215907  0.8160129944841122  -0.6881462176972475  1.0000
  S   S1128     1.0  0.6099857733215907  0.8160129944841122  -0.7741875886993648  1.0000
  S   S1129     1.0  0.039108546168958744  0.8183267909715408  -0.6881462176972475  1.0000
  S   S1130     1.0  0.039108546168958744  0.8183267909715408  -0.7741875886993648  1.0000
  S   S1131     1.0  0.0993725838139299  0.8228813827598216  -0.6881462176972475  1.0000
  S   S1132     1.0  0.0993725838139299  0.8228813827598216  -0.7741875886993648  1.0000
  S   S1133     1.0  0.6674344556601857  0.8231870325877296  -0.6881462176972475  1.0000
  S   S1134     1.0  0.6674344556601857  0.8231870325877296  -0.7741875886993648  1.0000
  S   S1135     1.0  0.7290438768827767  0.8261367353614656  -0.6881462176972475  1.0000
  S   S1136     1.0  0.7290438768827767  0.8261367353614656  -0.7741875886993648  1.0000
  S   S1137     1.0  0.16110019646365423  0.830856582083275  -0.6881462176972475  1.0000
  S   S1138     1.0  0.16110019646365423  0.830856582083275  -0.7741875886993648  1.0000
  S   S1139     1.0  0.7879647820708724  0.8310253334787191  -0.6881462176972475  1.0000
  S   S1140     1.0  0.7879647820708724  0.8310253334787191  -0.7741875886993648  1.0000
  S   S1141     1.0  0.22165310131911312  0.835342773026777  -0.6881462176972475  1.0000
  S   S1142     1.0  0.22165310131911312  0.835342773026777  -0.7741875886993648  1.0000
  S   S1143     1.0  0.8479371316306483  0.8342296368989206  -0.6881462176972475  1.0000
  S   S1144     1.0  0.8479371316306483  0.8342296368989206  -0.7741875886993648  1.0000
  S   S1145     1.0  0.28094302554027506  0.8377352050177072  -0.6881462176972475  1.0000
  S   S1146     1.0  0.28094302554027506  0.8377352050177072  -0.7741875886993648  1.0000
  S   S1147     1.0  0.9056974459724951  0.8400392541707558  -0.6881462176972475  1.0000
  S   S1148     1.0  0.9056974459724951  0.8400392541707558  -0.7741875886993648  1.0000
  S   S1149     1.0  0.3388998035363458  0.844946025515211  -0.6881462176972475  1.0000
  S   S1150     1.0  0.3388998035363458  0.844946025515211  -0.7741875886993648  1.0000
  S   S1151     1.0  0.39793396286203186  0.8490297255373707  -0.6881462176972475  1.0000
  S   S1152     1.0  0.39793396286203186  0.8490297255373707  -0.7741875886993648  1.0000
  S   S1153     1.0  0.9647347740667978  0.847693817468106  -0.6881462176972475  1.0000
  S   S1154     1.0  0.9647347740667978  0.847693817468106  -0.7741875886993648  1.0000
  S   S1155     1.0  0.4576147857090883  0.8549413004761387  -0.6881462176972475  1.0000
  S   S1156     1.0  0.4576147857090883  0.8549413004761387  -0.7741875886993648  1.0000
  S   S1157     1.0  0.512220039292731  0.8628066732090285  -0.6881462176972475  1.0000
  S   S1158     1.0  0.512220039292731  0.8628066732090285  -0.7741875886993648  1.0000
  S   S1159     1.0  0.5744868233859495  0.8650130283239147  -0.6881462176972475  1.0000
  S   S1160     1.0  0.5744868233859495  0.8650130283239147  -0.7741875886993648  1.0000
  S   S1161     1.0  0.005431642205015601  0.8649771979449288  -0.6881462176972475  1.0000
  S   S1162     1.0  0.005431642205015601  0.8649771979449288  -0.7741875886993648  1.0000
  S   S1163     1.0  0.6346561886051081  0.8706575073601572  -0.6881462176972475  1.0000
  S   S1164     1.0  0.6346561886051081  0.8706575073601572  -0.7741875886993648  1.0000
  S   S1165     1.0  0.06431295504449323  0.8734052993130521  -0.6881462176972475  1.0000
  S   S1166     1.0  0.06431295504449323  0.8734052993130521  -0.7741875886993648  1.0000
  S   S1167     1.0  0.12493633122316816  0.8755133936684477  -0.6881462176972475  1.0000
  S   S1168     1.0  0.12493633122316816  0.8755133936684477  -0.7741875886993648  1.0000
  S   S1169     1.0  0.6933529796987559  0.8755315668956494  -0.6881462176972475  1.0000
  S   S1170     1.0  0.6933529796987559  0.8755315668956494  -0.7741875886993648  1.0000
  S   S1171     1.0  0.7522920759659464  0.8794569839712136  -0.6881462176972475  1.0000
  S   S1172     1.0  0.7522920759659464  0.8794569839712136  -0.7741875886993648  1.0000
  S   S1173     1.0  0.1852962465101851  0.8813594339135375  -0.6881462176972475  1.0000
  S   S1174     1.0  0.1852962465101851  0.8813594339135375  -0.7741875886993648  1.0000
  S   S1175     1.0  0.8129229425889544  0.8851088576309382  -0.6881462176972475  1.0000
  S   S1176     1.0  0.8129229425889544  0.8851088576309382  -0.7741875886993648  1.0000
  S   S1177     1.0  0.24450218645034538  0.8879673303998229  -0.6881462176972475  1.0000
  S   S1178     1.0  0.24450218645034538  0.8879673303998229  -0.7741875886993648  1.0000
  S   S1179     1.0  0.8722986247544203  0.8891069676153093  -0.6881462176972475  1.0000
  S   S1180     1.0  0.8722986247544203  0.8891069676153093  -0.7741875886993648  1.0000
  S   S1181     1.0  0.30320890635232484  0.8940137389597645  -0.6881462176972475  1.0000
  S   S1182     1.0  0.30320890635232484  0.8940137389597645  -0.7741875886993648  1.0000
  S   S1183     1.0  0.9325708672467022  0.8943642226272257  -0.6881462176972475  1.0000
  S   S1184     1.0  0.9325708672467022  0.8943642226272257  -0.7741875886993648  1.0000
  S   S1185     1.0  0.36408925063149034  0.8969578017664378  -0.6881462176972475  1.0000
  S   S1186     1.0  0.36408925063149034  0.8969578017664378  -0.7741875886993648  1.0000
  S   S1187     1.0  0.42501637197118536  0.9052011776251226  -0.6881462176972475  1.0000
  S   S1188     1.0  0.42501637197118536  0.9052011776251226  -0.7741875886993648  1.0000
  S   S1189     1.0  0.4827912391763079  0.9118598480718206  -0.6881462176972475  1.0000
  S   S1190     1.0  0.4827912391763079  0.9118598480718206  -0.7741875886993648  1.0000
  S   S1191     1.0  0.5395677799607073  0.9141511285574093  -0.6881462176972475  1.0000
  S   S1192     1.0  0.5395677799607073  0.9141511285574093  -0.7741875886993648  1.0000
  S   S1193     1.0  0.5993778650949575  0.9183840366372261  -0.6881462176972475  1.0000
  S   S1194     1.0  0.5993778650949575  0.9183840366372261  -0.7741875886993648  1.0000
  S   S1195     1.0  0.6584949175706842  0.9224730127576055  -0.6881462176972475  1.0000
  S   S1196     1.0  0.6584949175706842  0.9224730127576055  -0.7741875886993648  1.0000
  S   S1197     1.0  0.030451866404715127  0.9234543670264966  -0.6881462176972475  1.0000
  S   S1198     1.0  0.030451866404715127  0.9234543670264966  -0.7741875886993648  1.0000
  S   S1199     1.0  0.09153751000509351  0.9262530440155564  -0.6881462176972475  1.0000
  S   S1200     1.0  0.09153751000509351  0.9262530440155564  -0.7741875886993648  1.0000
  S   S1201     1.0  0.7170923379174853  0.930323846908734  -0.6881462176972475  1.0000
  S   S1202     1.0  0.7170923379174853  0.930323846908734  -0.7741875886993648  1.0000
  S   S1203     1.0  0.14833005893909626  0.9332679097154073  -0.6881462176972475  1.0000
  S   S1204     1.0  0.14833005893909626  0.9332679097154073  -0.7741875886993648  1.0000
  S   S1205     1.0  0.21087098886705957  0.9358194308145242  -0.6881462176972475  1.0000
  S   S1206     1.0  0.21087098886705957  0.9358194308145242  -0.7741875886993648  1.0000
  S   S1207     1.0  0.7767067779960708  0.9352919528949952  -0.6881462176972475  1.0000
  S   S1208     1.0  0.7767067779960708  0.9352919528949952  -0.7741875886993648  1.0000
  S   S1209     1.0  0.8379174852652259  0.9381746810598627  -0.6881462176972475  1.0000
  S   S1210     1.0  0.8379174852652259  0.9381746810598627  -0.7741875886993648  1.0000
  S   S1211     1.0  0.2701375245579568  0.9411187438665358  -0.6881462176972475  1.0000
  S   S1212     1.0  0.2701375245579568  0.9411187438665358  -0.7741875886993648  1.0000
  S   S1213     1.0  0.8978388998035364  0.9421000981354269  -0.6881462176972475  1.0000
  S   S1214     1.0  0.8978388998035364  0.9421000981354269  -0.7741875886993648  1.0000
  S   S1215     1.0  0.3283965543297567  0.9471578470597117  -0.6881462176972475  1.0000
  S   S1216     1.0  0.3283965543297567  0.9471578470597117  -0.7741875886993648  1.0000
  S   S1217     1.0  0.9584479371316307  0.9482826300294407  -0.6881462176972475  1.0000
  S   S1218     1.0  0.9584479371316307  0.9482826300294407  -0.7741875886993648  1.0000
  S   S1219     1.0  0.38659681292294257  0.951840947915531  -0.6881462176972475  1.0000
  S   S1220     1.0  0.38659681292294257  0.951840947915531  -0.7741875886993648  1.0000
  S   S1221     1.0  0.4477188386815106  0.9587467742521718  -0.6881462176972475  1.0000
  S   S1222     1.0  0.4477188386815106  0.9587467742521718  -0.7741875886993648  1.0000
  S   S1223     1.0  0.5041748526522594  0.962790317304547  -0.6881462176972475  1.0000
  S   S1224     1.0  0.5041748526522594  0.962790317304547  -0.7741875886993648  1.0000
  S   S1225     1.0  0.5659046258260404  0.9642251761976983  -0.6881462176972475  1.0000
  S   S1226     1.0  0.5659046258260404  0.9642251761976983  -0.7741875886993648  1.0000
  S   S1227     1.0  0.62475442043222  0.9737299011096854  -0.6881462176972475  1.0000
  S   S1228     1.0  0.62475442043222  0.9737299011096854  -0.7741875886993648  1.0000
  S   S1229     1.0  0.685889286952502  0.9743116088437339  -0.6881462176972475  1.0000
  S   S1230     1.0  0.685889286952502  0.9743116088437339  -0.7741875886993648  1.0000
  S   S1231     1.0  0.05422396856581533  0.9766437684003927  -0.6881462176972475  1.0000
  S   S1232     1.0  0.05422396856581533  0.9766437684003927  -0.7741875886993648  1.0000
  S   S1233     1.0  0.11573495267011966  0.9795699884021768  -0.6881462176972475  1.0000
  S   S1234     1.0  0.11573495267011966  0.9795699884021768  -0.7741875886993648  1.0000
  S   S1235     1.0  0.7447937131630649  0.9819430814524044  -0.6881462176972475  1.0000
  S   S1236     1.0  0.7447937131630649  0.9819430814524044  -0.7741875886993648  1.0000
  S   S1237     1.0  0.17499818089209054  0.9844800639697598  -0.6881462176972475  1.0000
  S   S1238     1.0  0.17499818089209054  0.9844800639697598  -0.7741875886993648  1.0000
  S   S1239     1.0  0.8059375682165466  0.9862610402355251  -0.6881462176972475  1.0000
  S   S1240     1.0  0.8059375682165466  0.9862610402355251  -0.7741875886993648  1.0000
  S   S1241     1.0  0.23207269155206287  0.9895322211318287  -0.6881462176972475  1.0000
  S   S1242     1.0  0.23207269155206287  0.9895322211318287  -0.7741875886993648  1.0000
  S   S1243     1.0  0.2953503601833661  0.9946025515210992  -0.6881462176972475  1.0000
  S   S1244     1.0  0.2953503601833661  0.9946025515210992  -0.7741875886993648  1.0000
  S   S1245     1.0  0.8605108055009824  0.9911678115799804  -0.6881462176972475  1.0000
  S   S1246     1.0  0.8605108055009824  0.9911678115799804  -0.7741875886993648  1.0000
  S   S1247     1.0  0.9233791748526522  0.9941118743866536  -0.6881462176972475  1.0000
  S   S1248     1.0  0.9233791748526522  0.9941118743866536  -0.7741875886993648  1.0000
  S   S1249     1.0  0.3457760314341847  0.9990186457311091  -0.6881462176972475  1.0000
  S   S1250     1.0  0.3457760314341847  0.9990186457311091  -0.7741875886993648  1.0000
